132290

  Mrv0541 05041708492D          

 16 17  0  0  0  0            999 V2000
    5.6363   -2.4746    0.0000 C   0  0  0  0  0  0  0  0  0  0  0  0
    5.6363   -3.2996    0.0000 C   0  0  0  0  0  0  0  0  0  0  0  0
    6.4611   -2.4746    0.0000 C   0  0  0  0  0  0  0  0  0  0  0  0
    6.4611   -3.2996    0.0000 N   0  0  0  0  0  0  0  0  0  0  0  0
    7.2681   -2.3031    0.0000 C   0  0  0  0  0  0  0  0  0  0  0  0
    7.6807   -3.0175    0.0000 C   0  0  0  0  0  0  0  0  0  0  0  0
    7.1286   -3.6306    0.0000 C   0  0  0  0  0  0  0  0  0  0  0  0
    5.0528   -1.8913    0.0000 C   0  0  0  0  0  0  0  0  0  0  0  0
    5.0528   -3.8829    0.0000 O   0  0  0  0  0  0  0  0  0  0  0  0
    7.2833   -4.4409    0.0000 C   0  0  0  0  0  0  0  0  0  0  0  0
    6.6590   -4.9800    0.0000 O   0  0  0  0  0  0  0  0  0  0  0  0
    8.0624   -4.7121    0.0000 O   0  0  0  0  0  0  0  0  0  0  0  0
    8.5011   -3.1038    0.0000 S   0  0  0  0  0  0  0  0  0  0  0  0
    8.9135   -3.8182    0.0000 C   0  0  0  0  0  0  0  0  0  0  0  0
    9.7385   -3.8182    0.0000 C   0  0  0  0  0  0  0  0  0  0  0  0
   10.1510   -4.5328    0.0000 N   0  0  0  0  0  0  0  0  0  0  0  0
  1  2  1  0  0  0  0
  1  3  1  0  0  0  0
  3  4  1  0  0  0  0
  4  2  1  0  0  0  0
  3  5  1  0  0  0  0
  5  6  1  0  0  0  0
  6  7  1  0  0  0  0
  7  4  1  0  0  0  0
  1  8  1  0  0  0  0
  2  9  2  0  0  0  0
  7 10  1  0  0  0  0
 10 11  1  0  0  0  0
 10 12  2  0  0  0  0
  6 13  1  0  0  0  0
 13 14  1  0  0  0  0
 14 15  1  0  0  0  0
 15 16  1  0  0  0  0
M  END

>  <ACTIVITY>
5.00
$$$$
46765

  Mrv0541 05041708492D          

  9 10  0  0  0  0            999 V2000
    0.4125   -0.4125    0.0000 N   0  0  0  0  0  0  0  0  0  0  0  0
   -0.4125    0.4125    0.0000 C   0  0  0  0  0  0  0  0  0  0  0  0
   -0.4125   -0.4125    0.0000 C   0  0  0  0  0  0  0  0  0  0  0  0
    1.1971   -0.6674    0.0000 C   0  0  0  0  0  0  0  0  0  0  0  0
    1.6820    0.0000    0.0000 C   0  0  0  0  0  0  0  0  0  0  0  0
    1.1971    0.6674    0.0000 C   0  0  0  0  0  0  0  0  0  0  0  0
   -0.9959   -0.9959    0.0000 O   0  0  0  0  0  0  0  0  0  0  0  0
    0.4125    0.4125    0.0000 C   0  0  1  0  0  0  0  0  0  0  0  0
    0.4125    1.2375    0.0000 H   0  0  0  0  0  0  0  0  0  0  0  0
  8  6  1  0  0  0  0
  8  1  1  0  0  0  0
  1  4  1  0  0  0  0
  8  2  1  0  0  0  0
  2  3  1  0  0  0  0
  1  3  1  0  0  0  0
  3  7  2  0  0  0  0
  4  5  2  0  0  0  0
  6  5  1  0  0  0  0
  8  9  1  6  0  0  0
M  END

>  <ACTIVITY>
5.00
$$$$
132289

  Mrv0541 05041708492D          

 17 18  0  0  0  0            999 V2000
   -2.0212   -0.8250    0.0000 C   0  0  0  0  0  0  0  0  0  0  0  0
   -2.0212   -1.6500    0.0000 C   0  0  0  0  0  0  0  0  0  0  0  0
   -1.1962   -0.8250    0.0000 C   0  0  0  0  0  0  0  0  0  0  0  0
   -1.1962   -1.6500    0.0000 N   0  0  0  0  0  0  0  0  0  0  0  0
   -0.3892   -0.6534    0.0000 C   0  0  0  0  0  0  0  0  0  0  0  0
    0.0233   -1.3679    0.0000 C   0  0  0  0  0  0  0  0  0  0  0  0
   -0.5288   -1.9810    0.0000 C   0  0  0  0  0  0  0  0  0  0  0  0
   -2.6046   -0.2417    0.0000 C   0  0  0  0  0  0  0  0  0  0  0  0
   -2.6046   -2.2333    0.0000 O   0  0  0  0  0  0  0  0  0  0  0  0
   -0.3741   -2.7914    0.0000 C   0  0  0  0  0  0  0  0  0  0  0  0
   -0.9985   -3.3305    0.0000 O   0  0  0  0  0  0  0  0  0  0  0  0
    0.4051   -3.0626    0.0000 O   0  0  0  0  0  0  0  0  0  0  0  0
    0.8438   -1.4541    0.0000 S   0  0  0  0  0  0  0  0  0  0  0  0
    1.1792   -2.2078    0.0000 C   0  0  0  0  0  0  0  0  0  0  0  0
    1.9997   -2.2940    0.0000 C   0  0  0  0  0  0  0  0  0  0  0  0
    2.3353   -3.0478    0.0000 N   0  0  0  0  0  0  0  0  0  0  0  0
   -2.3923    0.5507    0.0000 C   0  0  0  0  0  0  0  0  0  0  0  0
  1  2  1  0  0  0  0
  1  3  1  0  0  0  0
  3  4  1  0  0  0  0
  4  2  1  0  0  0  0
  3  5  1  0  0  0  0
  5  6  1  0  0  0  0
  6  7  1  0  0  0  0
  7  4  1  0  0  0  0
  1  8  1  0  0  0  0
  2  9  2  0  0  0  0
  7 10  1  0  0  0  0
 10 11  1  0  0  0  0
 10 12  2  0  0  0  0
  6 13  1  0  0  0  0
 13 14  1  0  0  0  0
 14 15  1  0  0  0  0
 15 16  1  0  0  0  0
  8 17  1  0  0  0  0
M  END

>  <ACTIVITY>
5.00
$$$$
132304

  Mrv0541 05041708492D          

 15 16  0  0  0  0            999 V2000
   -2.0212   -0.8250    0.0000 C   0  0  0  0  0  0  0  0  0  0  0  0
   -2.0212   -1.6500    0.0000 C   0  0  0  0  0  0  0  0  0  0  0  0
   -1.1962   -0.8250    0.0000 C   0  0  0  0  0  0  0  0  0  0  0  0
   -1.1962   -1.6500    0.0000 N   0  0  0  0  0  0  0  0  0  0  0  0
   -0.3893   -0.6535    0.0000 C   0  0  0  0  0  0  0  0  0  0  0  0
    0.0233   -1.3679    0.0000 C   0  0  0  0  0  0  0  0  0  0  0  0
   -0.5288   -1.9810    0.0000 C   0  0  0  0  0  0  0  0  0  0  0  0
   -2.6046   -2.2333    0.0000 O   0  0  0  0  0  0  0  0  0  0  0  0
   -0.3742   -2.7914    0.0000 C   0  0  0  0  0  0  0  0  0  0  0  0
   -0.9984   -3.3304    0.0000 O   0  0  0  0  0  0  0  0  0  0  0  0
    0.4051   -3.0625    0.0000 O   0  0  0  0  0  0  0  0  0  0  0  0
    0.8438   -1.4541    0.0000 S   0  0  0  0  0  0  0  0  0  0  0  0
    1.1792   -2.2078    0.0000 C   0  0  0  0  0  0  0  0  0  0  0  0
    1.9997   -2.2940    0.0000 C   0  0  0  0  0  0  0  0  0  0  0  0
    2.3353   -3.0478    0.0000 N   0  0  0  0  0  0  0  0  0  0  0  0
  1  2  1  0  0  0  0
  1  3  1  0  0  0  0
  3  4  1  0  0  0  0
  4  2  1  0  0  0  0
  3  5  1  0  0  0  0
  5  6  1  0  0  0  0
  6  7  1  0  0  0  0
  7  4  1  0  0  0  0
  2  8  2  0  0  0  0
  7  9  1  0  0  0  0
  9 10  1  0  0  0  0
  9 11  2  0  0  0  0
  6 12  1  0  0  0  0
 12 13  1  0  0  0  0
 13 14  1  0  0  0  0
 14 15  1  0  0  0  0
M  END

>  <ACTIVITY>
5.00
$$$$
46633

  Mrv0541 05041708492D          

 15 16  0  0  1  0            999 V2000
    8.0860   -9.8751    0.0000 C   0  0  0  0  0  0  0  0  0  0  0  0
    8.9110  -10.7001    0.0000 N   0  0  0  0  0  0  0  0  0  0  0  0
    8.9110   -9.8751    0.0000 C   0  0  2  0  0  0  0  0  0  0  0  0
    8.0861  -10.7001    0.0000 C   0  0  0  0  0  0  0  0  0  0  0  0
    9.6956  -10.9551    0.0000 C   0  0  0  0  0  0  0  0  0  0  0  0
   10.1805  -10.2876    0.0000 C   0  0  0  0  0  0  0  0  0  0  0  0
    9.6957   -9.6202    0.0000 C   0  0  0  0  0  0  0  0  0  0  0  0
    7.5027  -11.2835    0.0000 O   0  0  0  0  0  0  0  0  0  0  0  0
    7.4105   -9.1997    0.0000 R#  0  0  0  0  0  0  0  0  0  0  0  0
    9.9910   -8.7117    0.0000 R#  0  0  0  0  0  0  0  0  0  0  0  0
   11.1358  -10.2877    0.0000 R#  0  0  0  0  0  0  0  0  0  0  0  0
    9.9506  -11.7397    0.0000 C   0  0  0  0  0  0  0  0  0  0  0  0
    8.9160   -9.0552    0.0000 H   0  0  0  0  0  0  0  0  0  0  0  0
    9.3986  -12.3528    0.0000 O   0  0  0  0  0  0  0  0  0  0  0  0
   10.7575  -11.9112    0.0000 O   0  0  0  0  0  0  0  0  0  0  0  0
  3  1  1  0  0  0  0
  4  1  1  0  0  0  0
  4  2  1  0  0  0  0
  5  2  1  0  0  0  0
  3  2  1  0  0  0  0
  6  5  2  0  0  0  0
  7  3  1  0  0  0  0
  7  6  1  0  0  0  0
  4  8  2  0  0  0  0
  1  9  1  0  0  0  0
  7 10  1  0  0  0  0
  6 11  1  0  0  0  0
  5 12  1  0  0  0  0
  3 13  1  6  0  0  0
 12 14  2  0  0  0  0
 12 15  1  0  0  0  0
M  RGP  3   9   1  10   2  11   3
M  END

>  <ACTIVITY>
5.00
$$$$
58998

  Mrv0541 05041708492D          

 23 24  0  0  1  0            999 V2000
   10.6725   -6.7825    0.0000 N   0  0  0  0  0  0  0  0  0  0  0  0
   10.6725   -5.9575    0.0000 C   0  0  2  0  0  0  0  0  0  0  0  0
   11.4571   -7.0374    0.0000 C   0  0  0  0  0  0  0  0  0  0  0  0
    9.8475   -6.7825    0.0000 C   0  0  0  0  0  0  0  0  0  0  0  0
   11.4571   -5.7025    0.0000 C   0  0  0  0  0  0  0  0  0  0  0  0
   11.9420   -6.3700    0.0000 C   0  0  0  0  0  0  0  0  0  0  0  0
   11.7120   -7.8221    0.0000 C   0  0  0  0  0  0  0  0  0  0  0  0
    9.2641   -7.3659    0.0000 O   0  0  0  0  0  0  0  0  0  0  0  0
    9.1177   -5.5726    0.0000 C   0  0  2  0  0  0  0  0  0  0  0  0
   12.7670   -6.3700    0.0000 S   0  0  0  0  0  0  0  0  0  0  0  0
   12.5190   -7.9936    0.0000 O   0  0  0  0  0  0  0  0  0  0  0  0
   11.1600   -8.4352    0.0000 O   0  0  0  0  0  0  0  0  0  0  0  0
    8.4196   -6.0121    0.0000 C   0  0  0  0  0  0  0  0  0  0  0  0
    9.0863   -4.7482    0.0000 O   0  0  0  0  0  0  0  0  0  0  0  0
   13.1795   -5.6555    0.0000 C   0  0  0  0  0  0  0  0  0  0  0  0
   14.0045   -5.6555    0.0000 C   0  0  0  0  0  0  0  0  0  0  0  0
   14.4170   -4.9411    0.0000 N   0  0  0  0  0  0  0  0  0  0  0  0
   15.6545   -4.2266    0.0000 O   0  0  0  0  0  0  0  0  0  0  0  0
   10.6963   -5.1328    0.0000 H   0  0  0  0  0  0  0  0  0  0  0  0
    9.8475   -5.9575    0.0000 C   0  0  2  0  0  0  0  0  0  0  0  0
    9.8475   -5.1325    0.0000 H   0  0  0  0  0  0  0  0  0  0  0  0
   15.2420   -4.9411    0.0000 C   0  0  0  0  0  0  0  0  0  0  0  0
   15.6545   -5.6556    0.0000 C   0  0  0  0  0  0  0  0  0  0  0  0
  1  2  1  0  0  0  0
  1  3  1  0  0  0  0
  1  4  1  0  0  0  0
  2 20  1  0  0  0  0
  2  5  1  0  0  0  0
  3  6  2  0  0  0  0
  3  7  1  0  0  0  0
  4  8  2  0  0  0  0
 20  9  1  0  0  0  0
  6 10  1  0  0  0  0
  7 11  1  0  0  0  0
  7 12  2  0  0  0  0
  9 13  1  0  0  0  0
  9 14  1  6  0  0  0
 10 15  1  0  0  0  0
 15 16  2  0  0  0  0
 16 17  1  0  0  0  0
 17 22  1  0  0  0  0
 22 18  2  0  0  0  0
  4 20  1  0  0  0  0
  5  6  1  0  0  0  0
  2 19  1  6  0  0  0
 20 21  1  1  0  0  0
 22 23  1  0  0  0  0
M  END

>  <ACTIVITY>
5.00
$$$$
471744

  Mrv0541 05041708492D          

 23 24  0  0  1  0            999 V2000
   -1.3681   -0.3762    0.0000 N   0  0  0  0  0  0  0  0  0  0  0  0
   -1.3681    0.4488    0.0000 C   0  0  2  0  0  0  0  0  0  0  0  0
   -0.5835   -0.6311    0.0000 C   0  0  0  0  0  0  0  0  0  0  0  0
   -2.1931   -0.3762    0.0000 C   0  0  0  0  0  0  0  0  0  0  0  0
   -0.5835    0.7037    0.0000 C   0  0  0  0  0  0  0  0  0  0  0  0
   -0.0986    0.0363    0.0000 C   0  0  0  0  0  0  0  0  0  0  0  0
   -0.3286   -1.4158    0.0000 C   0  0  0  0  0  0  0  0  0  0  0  0
   -2.7765   -0.9596    0.0000 O   0  0  0  0  0  0  0  0  0  0  0  0
   -2.9228    0.8337    0.0000 C   0  0  1  0  0  0  0  0  0  0  0  0
    0.7264    0.0363    0.0000 S   0  0  0  0  0  0  0  0  0  0  0  0
    0.4784   -1.5873    0.0000 O   0  0  0  0  0  0  0  0  0  0  0  0
   -0.8806   -2.0289    0.0000 O   0  0  0  0  0  0  0  0  0  0  0  0
   -3.6210    0.3942    0.0000 C   0  0  0  0  0  0  0  0  0  0  0  0
   -2.9543    1.6581    0.0000 O   0  0  0  0  0  0  0  0  0  0  0  0
    1.1389    0.7508    0.0000 C   0  0  0  0  0  0  0  0  0  0  0  0
    1.9639    0.7508    0.0000 C   0  0  0  0  0  0  0  0  0  0  0  0
    2.3764    1.4652    0.0000 N   0  0  0  0  0  0  0  0  0  0  0  0
    3.6139    2.1797    0.0000 N   0  0  0  0  0  0  0  0  0  0  0  0
   -1.3442    1.2735    0.0000 H   0  0  0  0  0  0  0  0  0  0  0  0
   -2.1931    0.4488    0.0000 C   0  0  2  0  0  0  0  0  0  0  0  0
   -2.1931    1.2738    0.0000 H   0  0  0  0  0  0  0  0  0  0  0  0
    3.2014    1.4652    0.0000 C   0  0  0  0  0  0  0  0  0  0  0  0
    3.6139    0.7508    0.0000 H   0  0  0  0  0  0  0  0  0  0  0  0
  1  2  1  0  0  0  0
  1  3  1  0  0  0  0
  1  4  1  0  0  0  0
  2 20  1  0  0  0  0
  2  5  1  0  0  0  0
  3  6  2  0  0  0  0
  3  7  1  0  0  0  0
  4  8  2  0  0  0  0
 20  9  1  0  0  0  0
  6 10  1  0  0  0  0
  7 11  1  0  0  0  0
  7 12  2  0  0  0  0
  9 13  1  0  0  0  0
  9 14  1  1  0  0  0
 10 15  1  0  0  0  0
 15 16  1  0  0  0  0
 16 17  1  0  0  0  0
 17 22  1  0  0  0  0
 22 18  2  0  0  0  0
  4 20  1  0  0  0  0
  5  6  1  0  0  0  0
  2 19  1  6  0  0  0
 20 21  1  1  0  0  0
 22 23  1  0  0  0  0
M  END

>  <ACTIVITY>
5.00
$$$$
50845

  Mrv0541 05041708492D          

 34 37  0  0  1  0            999 V2000
   -0.7145    2.0625    0.0000 C   0  0  2  0  0  0  0  0  0  0  0  0
   -2.1434    2.0625    0.0000 C   0  0  0  0  0  0  0  0  0  0  0  0
   -0.7145    1.2375    0.0000 C   0  0  2  0  0  0  0  0  0  0  0  0
    0.7144    2.0625    0.0000 C   0  0  0  0  0  0  0  0  0  0  0  0
   -1.4290    2.4750    0.0000 C   0  0  0  0  0  0  0  0  0  0  0  0
    0.0000    2.4750    0.0000 C   0  0  0  0  0  0  0  0  0  0  0  0
    0.7144    1.2375    0.0000 C   0  0  0  0  0  0  0  0  0  0  0  0
   -2.8579    2.4750    0.0000 C   0  0  0  0  0  0  0  0  0  0  0  0
   -2.1434    1.2375    0.0000 C   0  0  2  0  0  0  0  0  0  0  0  0
    0.0000    0.8250    0.0000 C   0  0  1  0  0  0  0  0  0  0  0  0
   -3.5724    2.0625    0.0000 C   0  0  0  0  0  0  0  0  0  0  0  0
   -1.4290    0.8250    0.0000 C   0  0  2  0  0  0  0  0  0  0  0  0
   -3.5724    1.2375    0.0000 C   0  0  0  0  0  0  0  0  0  0  0  0
   -2.8579    0.8250    0.0000 C   0  0  2  0  0  0  0  0  0  0  0  0
    1.4289    2.4750    0.0000 C   0  0  0  0  0  0  0  0  0  0  0  0
    0.0000    0.0000    0.0000 N   0  0  0  0  0  0  0  0  0  0  0  0
    0.0000    3.3000    0.0000 O   0  0  0  0  0  0  0  0  0  0  0  0
   -2.8579    3.3000    0.0000 O   0  0  0  0  0  0  0  0  0  0  0  0
   -4.2868    2.4750    0.0000 C   0  0  0  0  0  0  0  0  0  0  0  0
   -0.7145    2.8875    0.0000 O   0  0  0  0  0  0  0  0  0  0  0  0
    2.1434    2.0625    0.0000 N   0  0  0  0  0  0  0  0  0  0  0  0
   -1.4290    3.3000    0.0000 O   0  0  0  0  0  0  0  0  0  0  0  0
    1.4289    0.8250    0.0000 O   0  0  0  0  0  0  0  0  0  0  0  0
   -1.4290    0.0000    0.0000 O   0  0  0  0  0  0  0  0  0  0  0  0
    1.4289    3.3000    0.0000 O   0  0  0  0  0  0  0  0  0  0  0  0
   -4.2868    0.8250    0.0000 C   0  0  0  0  0  0  0  0  0  0  0  0
   -2.8579    0.0000    0.0000 C   0  0  0  0  0  0  0  0  0  0  0  0
   -4.2868    3.3000    0.0000 O   0  0  0  0  0  0  0  0  0  0  0  0
   -5.0013    1.2375    0.0000 C   0  0  0  0  0  0  0  0  0  0  0  0
   -5.0013    2.0625    0.0000 C   0  0  0  0  0  0  0  0  0  0  0  0
    0.7144   -0.4125    0.0000 C   0  0  0  0  0  0  0  0  0  0  0  0
   -0.7145   -0.4125    0.0000 C   0  0  0  0  0  0  0  0  0  0  0  0
   -2.1434    0.4125    0.0000 H   0  0  0  0  0  0  0  0  0  0  0  0
   -0.7145    0.4125    0.0000 H   0  0  0  0  0  0  0  0  0  0  0  0
  3  1  1  0  0  0  0
  5  1  1  0  0  0  0
  6  1  1  0  0  0  0
  1 20  1  1  0  0  0
  5  2  2  0  0  0  0
  8  2  1  0  0  0  0
  9  2  1  0  0  0  0
 10  3  1  0  0  0  0
 12  3  1  0  0  0  0
  3 34  1  1  0  0  0
  6  4  1  0  0  0  0
  7  4  2  0  0  0  0
 15  4  1  0  0  0  0
 22  5  1  0  0  0  0
 17  6  2  0  0  0  0
 23  7  1  0  0  0  0
 10  7  1  0  0  0  0
 11  8  1  0  0  0  0
 18  8  2  0  0  0  0
 14  9  1  0  0  0  0
  9 33  1  1  0  0  0
 12  9  1  0  0  0  0
 10 16  1  1  0  0  0
 19 11  2  0  0  0  0
 13 11  1  0  0  0  0
 12 24  1  1  0  0  0
 14 13  1  0  0  0  0
 26 13  2  0  0  0  0
 14 27  1  1  0  0  0
 21 15  1  0  0  0  0
 25 15  2  0  0  0  0
 31 16  1  0  0  0  0
 32 16  1  0  0  0  0
 28 19  1  0  0  0  0
 30 19  1  0  0  0  0
 29 26  1  0  0  0  0
 30 29  2  0  0  0  0
M  END

>  <ACTIVITY>
5.00
$$$$
60648

  Mrv0541 05041708492D          

 35 37  0  0  1  0            999 V2000
   18.4328   -3.8895    0.0000 C   0  0  2  0  0  0  0  0  0  0  0  0
   17.0039   -3.8895    0.0000 C   0  0  0  0  0  0  0  0  0  0  0  0
   18.4328   -4.7145    0.0000 C   0  0  2  0  0  0  0  0  0  0  0  0
   19.8617   -3.8895    0.0000 C   0  0  0  0  0  0  0  0  0  0  0  0
   17.7183   -3.4770    0.0000 C   0  0  0  0  0  0  0  0  0  0  0  0
   19.1473   -3.4770    0.0000 C   0  0  0  0  0  0  0  0  0  0  0  0
   19.8617   -4.7145    0.0000 C   0  0  0  0  0  0  0  0  0  0  0  0
   16.2894   -3.4770    0.0000 C   0  0  0  0  0  0  0  0  0  0  0  0
   17.0039   -4.7145    0.0000 C   0  0  2  0  0  0  0  0  0  0  0  0
   19.1473   -5.1270    0.0000 C   0  0  1  0  0  0  0  0  0  0  0  0
   15.5749   -3.8895    0.0000 C   0  0  0  0  0  0  0  0  0  0  0  0
   17.7183   -5.1270    0.0000 C   0  0  2  0  0  0  0  0  0  0  0  0
   15.5749   -4.7145    0.0000 C   0  0  0  0  0  0  0  0  0  0  0  0
   16.2894   -5.1270    0.0000 C   0  0  2  0  0  0  0  0  0  0  0  0
   20.5762   -3.4770    0.0000 C   0  0  0  0  0  0  0  0  0  0  0  0
   19.1473   -5.9520    0.0000 N   0  0  0  0  0  0  0  0  0  0  0  0
   19.1473   -2.6520    0.0000 O   0  0  0  0  0  0  0  0  0  0  0  0
   16.2894   -2.6520    0.0000 O   0  0  0  0  0  0  0  0  0  0  0  0
   14.8605   -3.4770    0.0000 C   0  0  0  0  0  0  0  0  0  0  0  0
   18.4328   -3.0645    0.0000 O   0  0  0  0  0  0  0  0  0  0  0  0
   21.2907   -3.8895    0.0000 N   0  0  0  0  0  0  0  0  0  0  0  0
   17.7183   -2.6520    0.0000 O   0  0  0  0  0  0  0  0  0  0  0  0
   20.5762   -5.1270    0.0000 O   0  0  0  0  0  0  0  0  0  0  0  0
   17.7183   -5.9520    0.0000 O   0  0  0  0  0  0  0  0  0  0  0  0
   20.5762   -2.6520    0.0000 O   0  0  0  0  0  0  0  0  0  0  0  0
   14.8605   -5.1270    0.0000 C   0  0  0  0  0  0  0  0  0  0  0  0
   16.2894   -5.9520    0.0000 C   0  0  0  0  0  0  0  0  0  0  0  0
   14.8605   -2.6520    0.0000 O   0  0  0  0  0  0  0  0  0  0  0  0
   14.1460   -4.7145    0.0000 C   0  0  0  0  0  0  0  0  0  0  0  0
   14.1460   -3.8895    0.0000 C   0  0  0  0  0  0  0  0  0  0  0  0
   19.8617   -6.3645    0.0000 C   0  0  0  0  0  0  0  0  0  0  0  0
   18.4328   -6.3645    0.0000 C   0  0  0  0  0  0  0  0  0  0  0  0
   17.0039   -5.5395    0.0000 H   0  0  0  0  0  0  0  0  0  0  0  0
   18.4328   -5.5395    0.0000 H   0  0  0  0  0  0  0  0  0  0  0  0
   17.4542   -7.3256    0.0000 O   0  0  0  0  0  0  0  0  0  0  0  0
  3  1  1  0  0  0  0
  5  1  1  0  0  0  0
  6  1  1  0  0  0  0
  1 20  1  1  0  0  0
  5  2  2  0  0  0  0
  8  2  1  0  0  0  0
  9  2  1  0  0  0  0
 10  3  1  0  0  0  0
 12  3  1  0  0  0  0
  3 34  1  1  0  0  0
  6  4  1  0  0  0  0
  7  4  2  0  0  0  0
 15  4  1  0  0  0  0
 22  5  1  0  0  0  0
 17  6  2  0  0  0  0
 23  7  1  0  0  0  0
 10  7  1  0  0  0  0
 11  8  1  0  0  0  0
 18  8  2  0  0  0  0
 14  9  1  0  0  0  0
  9 33  1  1  0  0  0
 12  9  1  0  0  0  0
 10 16  1  1  0  0  0
 19 11  2  0  0  0  0
 13 11  1  0  0  0  0
 12 24  1  1  0  0  0
 14 13  1  0  0  0  0
 26 13  2  0  0  0  0
 14 27  1  1  0  0  0
 21 15  1  0  0  0  0
 25 15  2  0  0  0  0
 31 16  1  0  0  0  0
 32 16  1  0  0  0  0
 28 19  1  0  0  0  0
 30 19  1  0  0  0  0
 29 26  1  0  0  0  0
 30 29  2  0  0  0  0
M  END

>  <ACTIVITY>
5.00
$$$$
652992

  Mrv0541 05041708492D          

 35 37  0  0  1  0            999 V2000
   18.4328   -3.8895    0.0000 C   0  0  2  0  0  0  0  0  0  0  0  0
   17.0039   -3.8895    0.0000 C   0  0  0  0  0  0  0  0  0  0  0  0
   18.4328   -4.7145    0.0000 C   0  0  2  0  0  0  0  0  0  0  0  0
   19.8617   -3.8895    0.0000 C   0  0  0  0  0  0  0  0  0  0  0  0
   17.7183   -3.4770    0.0000 C   0  0  0  0  0  0  0  0  0  0  0  0
   19.1473   -3.4770    0.0000 C   0  0  0  0  0  0  0  0  0  0  0  0
   19.8617   -4.7145    0.0000 C   0  0  0  0  0  0  0  0  0  0  0  0
   16.2894   -3.4770    0.0000 C   0  0  0  0  0  0  0  0  0  0  0  0
   17.0039   -4.7145    0.0000 C   0  0  2  0  0  0  0  0  0  0  0  0
   19.1473   -5.1270    0.0000 C   0  0  1  0  0  0  0  0  0  0  0  0
   15.5749   -3.8895    0.0000 C   0  0  0  0  0  0  0  0  0  0  0  0
   17.7183   -5.1270    0.0000 C   0  0  2  0  0  0  0  0  0  0  0  0
   15.5749   -4.7145    0.0000 C   0  0  0  0  0  0  0  0  0  0  0  0
   16.2894   -5.1270    0.0000 C   0  0  2  0  0  0  0  0  0  0  0  0
   20.5762   -3.4770    0.0000 C   0  0  0  0  0  0  0  0  0  0  0  0
   19.1473   -5.9520    0.0000 N   0  3  0  0  0  0  0  0  0  0  0  0
   19.1473   -2.6520    0.0000 O   0  0  0  0  0  0  0  0  0  0  0  0
   16.2894   -2.6520    0.0000 O   0  0  0  0  0  0  0  0  0  0  0  0
   14.8605   -3.4770    0.0000 C   0  0  0  0  0  0  0  0  0  0  0  0
   18.4328   -3.0645    0.0000 O   0  0  0  0  0  0  0  0  0  0  0  0
   21.2907   -3.8895    0.0000 N   0  0  0  0  0  0  0  0  0  0  0  0
   17.7183   -2.6520    0.0000 O   0  0  0  0  0  0  0  0  0  0  0  0
   20.5762   -5.1270    0.0000 O   0  0  0  0  0  0  0  0  0  0  0  0
   17.7183   -5.9520    0.0000 O   0  0  0  0  0  0  0  0  0  0  0  0
   20.5762   -2.6520    0.0000 O   0  0  0  0  0  0  0  0  0  0  0  0
   14.8605   -5.1270    0.0000 C   0  0  0  0  0  0  0  0  0  0  0  0
   16.2894   -5.9520    0.0000 C   0  0  0  0  0  0  0  0  0  0  0  0
   14.8605   -2.6520    0.0000 O   0  0  0  0  0  0  0  0  0  0  0  0
   14.1460   -4.7145    0.0000 C   0  0  0  0  0  0  0  0  0  0  0  0
   14.1460   -3.8895    0.0000 C   0  0  0  0  0  0  0  0  0  0  0  0
   19.8617   -6.3645    0.0000 C   0  0  0  0  0  0  0  0  0  0  0  0
   18.4328   -6.3645    0.0000 C   0  0  0  0  0  0  0  0  0  0  0  0
   17.0039   -5.5395    0.0000 H   0  0  0  0  0  0  0  0  0  0  0  0
   18.4328   -5.5395    0.0000 H   0  0  0  0  0  0  0  0  0  0  0  0
   17.8617   -7.5344    0.0000 Cl  0  5  0  0  0  0  0  0  0  0  0  0
  3  1  1  0  0  0  0
  5  1  1  0  0  0  0
  6  1  1  0  0  0  0
  1 20  1  1  0  0  0
  5  2  2  0  0  0  0
  8  2  1  0  0  0  0
  9  2  1  0  0  0  0
 10  3  1  0  0  0  0
 12  3  1  0  0  0  0
  3 34  1  1  0  0  0
  6  4  1  0  0  0  0
  7  4  2  0  0  0  0
 15  4  1  0  0  0  0
 22  5  1  0  0  0  0
 17  6  2  0  0  0  0
 23  7  1  0  0  0  0
 10  7  1  0  0  0  0
 11  8  1  0  0  0  0
 18  8  2  0  0  0  0
 14  9  1  0  0  0  0
  9 33  1  1  0  0  0
 12  9  1  0  0  0  0
 10 16  1  1  0  0  0
 19 11  2  0  0  0  0
 13 11  1  0  0  0  0
 12 24  1  1  0  0  0
 14 13  1  0  0  0  0
 26 13  2  0  0  0  0
 14 27  1  1  0  0  0
 21 15  1  0  0  0  0
 25 15  2  0  0  0  0
 31 16  1  0  0  0  0
 32 16  1  0  0  0  0
 28 19  1  0  0  0  0
 30 19  1  0  0  0  0
 29 26  1  0  0  0  0
 30 29  2  0  0  0  0
M  CHG  2  16   1  35  -1
M  END

>  <ACTIVITY>
5.00
$$$$
34730

  Mrv0541 05041708492D          

 74 76  0  0  1  0            999 V2000
   18.4328   -3.8895    0.0000 C   0  0  2  0  0  0  0  0  0  0  0  0
   17.0039   -3.8895    0.0000 C   0  0  0  0  0  0  0  0  0  0  0  0
   18.4328   -4.7145    0.0000 C   0  0  2  0  0  0  0  0  0  0  0  0
   19.8617   -3.8895    0.0000 C   0  0  0  0  0  0  0  0  0  0  0  0
   17.7183   -3.4770    0.0000 C   0  0  0  0  0  0  0  0  0  0  0  0
   19.1473   -3.4770    0.0000 C   0  0  0  0  0  0  0  0  0  0  0  0
   19.8617   -4.7145    0.0000 C   0  0  0  0  0  0  0  0  0  0  0  0
   16.2894   -3.4770    0.0000 C   0  0  0  0  0  0  0  0  0  0  0  0
   17.0039   -4.7145    0.0000 C   0  0  2  0  0  0  0  0  0  0  0  0
   19.1473   -5.1270    0.0000 C   0  0  1  0  0  0  0  0  0  0  0  0
   15.5749   -3.8895    0.0000 C   0  0  0  0  0  0  0  0  0  0  0  0
   17.7183   -5.1270    0.0000 C   0  0  2  0  0  0  0  0  0  0  0  0
   15.5749   -4.7145    0.0000 C   0  0  0  0  0  0  0  0  0  0  0  0
   16.2894   -5.1270    0.0000 C   0  0  2  0  0  0  0  0  0  0  0  0
   20.5762   -3.4770    0.0000 C   0  0  0  0  0  0  0  0  0  0  0  0
   19.1473   -5.9520    0.0000 N   0  3  0  0  0  0  0  0  0  0  0  0
   19.1473   -2.6520    0.0000 O   0  0  0  0  0  0  0  0  0  0  0  0
   16.2894   -2.6520    0.0000 O   0  0  0  0  0  0  0  0  0  0  0  0
   14.8605   -3.4770    0.0000 C   0  0  0  0  0  0  0  0  0  0  0  0
   18.4328   -3.0645    0.0000 O   0  0  0  0  0  0  0  0  0  0  0  0
   21.2907   -3.8895    0.0000 N   0  0  0  0  0  0  0  0  0  0  0  0
   17.7183   -2.6520    0.0000 O   0  0  0  0  0  0  0  0  0  0  0  0
   20.5762   -5.1270    0.0000 O   0  0  0  0  0  0  0  0  0  0  0  0
   17.7183   -5.9520    0.0000 O   0  0  0  0  0  0  0  0  0  0  0  0
   20.5762   -2.6520    0.0000 O   0  0  0  0  0  0  0  0  0  0  0  0
   14.8605   -5.1270    0.0000 C   0  0  0  0  0  0  0  0  0  0  0  0
   16.2894   -5.9520    0.0000 C   0  0  0  0  0  0  0  0  0  0  0  0
   14.8605   -2.6520    0.0000 O   0  0  0  0  0  0  0  0  0  0  0  0
   14.1460   -4.7145    0.0000 C   0  0  0  0  0  0  0  0  0  0  0  0
   14.1460   -3.8895    0.0000 C   0  0  0  0  0  0  0  0  0  0  0  0
   19.8617   -6.3645    0.0000 C   0  0  0  0  0  0  0  0  0  0  0  0
   18.4328   -6.3645    0.0000 C   0  0  0  0  0  0  0  0  0  0  0  0
   17.0039   -5.5395    0.0000 H   0  0  0  0  0  0  0  0  0  0  0  0
   18.4328   -5.5395    0.0000 H   0  0  0  0  0  0  0  0  0  0  0  0
   17.9611   -7.5344    0.0000 Cl  0  5  0  0  0  0  0  0  0  0  0  0
   18.3433  -10.1615    0.0000 C   0  0  2  0  0  0  0  0  0  0  0  0
   16.9144  -10.1615    0.0000 C   0  0  0  0  0  0  0  0  0  0  0  0
   18.3433  -10.9865    0.0000 C   0  0  2  0  0  0  0  0  0  0  0  0
   19.7722  -10.1615    0.0000 C   0  0  0  0  0  0  0  0  0  0  0  0
   17.6288   -9.7490    0.0000 C   0  0  0  0  0  0  0  0  0  0  0  0
   19.0578   -9.7490    0.0000 C   0  0  0  0  0  0  0  0  0  0  0  0
   19.7722  -10.9865    0.0000 C   0  0  0  0  0  0  0  0  0  0  0  0
   16.1999   -9.7490    0.0000 C   0  0  0  0  0  0  0  0  0  0  0  0
   16.9144  -10.9865    0.0000 C   0  0  2  0  0  0  0  0  0  0  0  0
   19.0578  -11.3990    0.0000 C   0  0  1  0  0  0  0  0  0  0  0  0
   15.4854  -10.1615    0.0000 C   0  0  0  0  0  0  0  0  0  0  0  0
   17.6288  -11.3990    0.0000 C   0  0  2  0  0  0  0  0  0  0  0  0
   15.4854  -10.9865    0.0000 C   0  0  0  0  0  0  0  0  0  0  0  0
   16.1999  -11.3990    0.0000 C   0  0  2  0  0  0  0  0  0  0  0  0
   20.4867   -9.7490    0.0000 C   0  0  0  0  0  0  0  0  0  0  0  0
   19.0578  -12.2240    0.0000 N   0  3  0  0  0  0  0  0  0  0  0  0
   19.0578   -8.9240    0.0000 O   0  0  0  0  0  0  0  0  0  0  0  0
   16.1999   -8.9240    0.0000 O   0  0  0  0  0  0  0  0  0  0  0  0
   14.7710   -9.7490    0.0000 C   0  0  0  0  0  0  0  0  0  0  0  0
   18.3433   -9.3365    0.0000 O   0  0  0  0  0  0  0  0  0  0  0  0
   21.2012  -10.1615    0.0000 N   0  0  0  0  0  0  0  0  0  0  0  0
   17.6288   -8.9240    0.0000 O   0  0  0  0  0  0  0  0  0  0  0  0
   20.4867  -11.3990    0.0000 O   0  0  0  0  0  0  0  0  0  0  0  0
   17.6288  -12.2240    0.0000 O   0  0  0  0  0  0  0  0  0  0  0  0
   20.4867   -8.9240    0.0000 O   0  0  0  0  0  0  0  0  0  0  0  0
   14.7710  -11.3990    0.0000 C   0  0  0  0  0  0  0  0  0  0  0  0
   16.1999  -12.2240    0.0000 C   0  0  0  0  0  0  0  0  0  0  0  0
   14.7710   -8.9240    0.0000 O   0  0  0  0  0  0  0  0  0  0  0  0
   14.0565  -10.9865    0.0000 C   0  0  0  0  0  0  0  0  0  0  0  0
   14.0565  -10.1615    0.0000 C   0  0  0  0  0  0  0  0  0  0  0  0
   19.7722  -12.6365    0.0000 C   0  0  0  0  0  0  0  0  0  0  0  0
   18.3433  -12.6365    0.0000 C   0  0  0  0  0  0  0  0  0  0  0  0
   16.9144  -11.8115    0.0000 H   0  0  0  0  0  0  0  0  0  0  0  0
   18.3433  -11.8115    0.0000 H   0  0  0  0  0  0  0  0  0  0  0  0
   17.8717  -13.8063    0.0000 Cl  0  5  0  0  0  0  0  0  0  0  0  0
   14.3431   -7.3356    0.0000 C   0  0  0  0  0  0  0  0  0  0  0  0
   15.0587   -6.9181    0.0000 C   0  0  0  0  0  0  0  0  0  0  0  0
   15.7751   -7.3274    0.0000 O   0  0  0  0  0  0  0  0  0  0  0  0
   21.4698   -7.5144    0.0000 O   0  0  0  0  0  0  0  0  0  0  0  0
  3  1  1  0  0  0  0
  5  1  1  0  0  0  0
  6  1  1  0  0  0  0
  1 20  1  1  0  0  0
  5  2  2  0  0  0  0
  8  2  1  0  0  0  0
  9  2  1  0  0  0  0
 10  3  1  0  0  0  0
 12  3  1  0  0  0  0
  3 34  1  1  0  0  0
  6  4  1  0  0  0  0
  7  4  2  0  0  0  0
 15  4  1  0  0  0  0
 22  5  1  0  0  0  0
 17  6  2  0  0  0  0
 23  7  1  0  0  0  0
 10  7  1  0  0  0  0
 11  8  1  0  0  0  0
 18  8  2  0  0  0  0
 14  9  1  0  0  0  0
  9 33  1  1  0  0  0
 12  9  1  0  0  0  0
 10 16  1  1  0  0  0
 19 11  2  0  0  0  0
 13 11  1  0  0  0  0
 12 24  1  1  0  0  0
 14 13  1  0  0  0  0
 26 13  2  0  0  0  0
 14 27  1  1  0  0  0
 21 15  1  0  0  0  0
 25 15  2  0  0  0  0
 31 16  1  0  0  0  0
 32 16  1  0  0  0  0
 28 19  1  0  0  0  0
 30 19  1  0  0  0  0
 29 26  1  0  0  0  0
 30 29  2  0  0  0  0
 38 36  1  0  0  0  0
 40 36  1  0  0  0  0
 41 36  1  0  0  0  0
 36 55  1  1  0  0  0
 40 37  2  0  0  0  0
 43 37  1  0  0  0  0
 44 37  1  0  0  0  0
 45 38  1  0  0  0  0
 47 38  1  0  0  0  0
 38 69  1  1  0  0  0
 41 39  1  0  0  0  0
 42 39  2  0  0  0  0
 50 39  1  0  0  0  0
 57 40  1  0  0  0  0
 52 41  2  0  0  0  0
 58 42  1  0  0  0  0
 45 42  1  0  0  0  0
 46 43  1  0  0  0  0
 53 43  2  0  0  0  0
 49 44  1  0  0  0  0
 44 68  1  1  0  0  0
 47 44  1  0  0  0  0
 45 51  1  1  0  0  0
 54 46  2  0  0  0  0
 48 46  1  0  0  0  0
 47 59  1  1  0  0  0
 49 48  1  0  0  0  0
 61 48  2  0  0  0  0
 49 62  1  1  0  0  0
 56 50  1  0  0  0  0
 60 50  2  0  0  0  0
 66 51  1  0  0  0  0
 67 51  1  0  0  0  0
 63 54  1  0  0  0  0
 65 54  1  0  0  0  0
 64 61  1  0  0  0  0
 65 64  2  0  0  0  0
 71 72  1  0  0  0  0
 72 73  1  0  0  0  0
M  CHG  4  16   1  35  -1  51   1  70  -1
M  END

>  <ACTIVITY>
5.00
$$$$
77906
ChEBI
  Mrv0541 05041708492D          

 35 38  0  0  1  0            999 V2000
   11.1613   -9.5509    0.0000 C   0  0  0  0  0  0  0  0  0  0  0  0
   10.4469   -9.9634    0.0000 C   0  0  0  0  0  0  0  0  0  0  0  0
   10.4469  -10.7884    0.0000 C   0  0  0  0  0  0  0  0  0  0  0  0
   11.1613  -11.2009    0.0000 C   0  0  0  0  0  0  0  0  0  0  0  0
   11.8758  -10.7884    0.0000 C   0  0  0  0  0  0  0  0  0  0  0  0
   11.8758   -9.9634    0.0000 C   0  0  0  0  0  0  0  0  0  0  0  0
   12.5903   -9.5509    0.0000 C   0  0  0  0  0  0  0  0  0  0  0  0
   12.5903  -11.2009    0.0000 C   0  0  0  0  0  0  0  0  0  0  0  0
   13.3047  -10.7884    0.0000 C   0  0  0  0  0  0  0  0  0  0  0  0
   13.3047   -9.9634    0.0000 C   0  0  2  0  0  0  0  0  0  0  0  0
   14.0192   -9.5509    0.0000 C   0  0  0  0  0  0  0  0  0  0  0  0
   14.0192  -11.2009    0.0000 C   0  0  0  0  0  0  0  0  0  0  0  0
   14.7337  -10.7884    0.0000 C   0  0  1  0  0  0  0  0  0  0  0  0
   14.7337   -9.9634    0.0000 C   0  0  2  0  0  0  0  0  0  0  0  0
   15.4481   -9.5509    0.0000 C   0  0  1  0  0  0  0  0  0  0  0  0
   15.4481  -11.2009    0.0000 C   0  0  0  0  0  0  0  0  0  0  0  0
   16.1626  -10.7884    0.0000 C   0  0  0  0  0  0  0  0  0  0  0  0
   16.1626   -9.9634    0.0000 C   0  0  0  0  0  0  0  0  0  0  0  0
   11.1613   -8.7259    0.0000 N   0  0  0  0  0  0  0  0  0  0  0  0
   15.4481   -8.7259    0.0000 N   0  3  0  0  0  0  0  0  0  0  0  0
   14.7337  -11.6134    0.0000 O   0  0  0  0  0  0  0  0  0  0  0  0
   11.8758   -8.3134    0.0000 C   0  0  0  0  0  0  0  0  0  0  0  0
   10.4469   -8.3134    0.0000 C   0  0  0  0  0  0  0  0  0  0  0  0
   16.1626   -8.3134    0.0000 C   0  0  0  0  0  0  0  0  0  0  0  0
   14.7336   -8.3134    0.0000 C   0  0  0  0  0  0  0  0  0  0  0  0
   16.8771   -9.5509    0.0000 O   0  5  0  0  0  0  0  0  0  0  0  0
   11.1613  -12.0259    0.0000 O   0  0  0  0  0  0  0  0  0  0  0  0
   12.5903  -12.0259    0.0000 O   0  0  0  0  0  0  0  0  0  0  0  0
   14.0192  -12.0259    0.0000 O   0  0  0  0  0  0  0  0  0  0  0  0
   15.4481  -12.0259    0.0000 O   0  0  0  0  0  0  0  0  0  0  0  0
   16.8771  -11.2009    0.0000 C   0  0  0  0  0  0  0  0  0  0  0  0
   16.8771  -12.0259    0.0000 O   0  0  0  0  0  0  0  0  0  0  0  0
   17.5915  -10.7884    0.0000 N   0  0  0  0  0  0  0  0  0  0  0  0
   14.7337   -9.1384    0.0000 H   0  0  0  0  0  0  0  0  0  0  0  0
   13.3047   -9.1384    0.0000 H   0  0  0  0  0  0  0  0  0  0  0  0
  1  2  2  0  0  0  0
  2  3  1  0  0  0  0
  3  4  2  0  0  0  0
  4  5  1  0  0  0  0
  1  6  1  0  0  0  0
  7  6  1  0  0  0  0
  6  5  2  0  0  0  0
  5  8  1  0  0  0  0
  8  9  1  0  0  0  0
 10  7  1  0  0  0  0
 10 11  1  0  0  0  0
 10  9  1  0  0  0  0
  9 12  2  0  0  0  0
 13 12  1  0  0  0  0
 14 11  1  0  0  0  0
 14 15  1  0  0  0  0
 14 13  1  0  0  0  0
 13 16  1  0  0  0  0
 16 17  1  0  0  0  0
 17 18  2  0  0  0  0
 15 18  1  0  0  0  0
  1 19  1  0  0  0  0
 15 20  1  6  0  0  0
 13 21  1  6  0  0  0
 19 22  1  0  0  0  0
 19 23  1  0  0  0  0
 20 24  1  0  0  0  0
 20 25  1  0  0  0  0
 18 26  1  0  0  0  0
  4 27  1  0  0  0  0
  8 28  2  0  0  0  0
 12 29  1  0  0  0  0
 16 30  2  0  0  0  0
 17 31  1  0  0  0  0
 31 32  2  0  0  0  0
 31 33  1  0  0  0  0
 14 34  1  6  0  0  0
 10 35  1  6  0  0  0
M  CHG  2  20   1  26  -1
M  END

>  <ACTIVITY>
5.00
$$$$
71337

  Mrv0541 05041708492D          

 35 38  0  0  1  0            999 V2000
   11.1613   -9.5509    0.0000 C   0  0  0  0  0  0  0  0  0  0  0  0
   10.4469   -9.9634    0.0000 C   0  0  0  0  0  0  0  0  0  0  0  0
   10.4469  -10.7884    0.0000 C   0  0  0  0  0  0  0  0  0  0  0  0
   11.1613  -11.2009    0.0000 C   0  0  0  0  0  0  0  0  0  0  0  0
   11.8758  -10.7884    0.0000 C   0  0  0  0  0  0  0  0  0  0  0  0
   11.8758   -9.9634    0.0000 C   0  0  0  0  0  0  0  0  0  0  0  0
   12.5903   -9.5509    0.0000 C   0  0  0  0  0  0  0  0  0  0  0  0
   12.5903  -11.2009    0.0000 C   0  0  0  0  0  0  0  0  0  0  0  0
   13.3047  -10.7884    0.0000 C   0  0  0  0  0  0  0  0  0  0  0  0
   13.3047   -9.9634    0.0000 C   0  0  2  0  0  0  0  0  0  0  0  0
   14.0192   -9.5509    0.0000 C   0  0  0  0  0  0  0  0  0  0  0  0
   14.0192  -11.2009    0.0000 C   0  0  0  0  0  0  0  0  0  0  0  0
   14.7337  -10.7884    0.0000 C   0  0  1  0  0  0  0  0  0  0  0  0
   14.7337   -9.9634    0.0000 C   0  0  2  0  0  0  0  0  0  0  0  0
   15.4481   -9.5509    0.0000 C   0  0  1  0  0  0  0  0  0  0  0  0
   15.4481  -11.2009    0.0000 C   0  0  0  0  0  0  0  0  0  0  0  0
   16.1626  -10.7884    0.0000 C   0  0  0  0  0  0  0  0  0  0  0  0
   16.1626   -9.9634    0.0000 C   0  0  0  0  0  0  0  0  0  0  0  0
   11.1613   -8.7259    0.0000 N   0  0  0  0  0  0  0  0  0  0  0  0
   15.4481   -8.7259    0.0000 N   0  3  0  0  0  0  0  0  0  0  0  0
   14.7337   -9.1384    0.0000 H   0  0  0  0  0  0  0  0  0  0  0  0
   13.3047   -9.1384    0.0000 H   0  0  0  0  0  0  0  0  0  0  0  0
   14.7337  -11.6134    0.0000 O   0  0  0  0  0  0  0  0  0  0  0  0
   11.8758   -8.3134    0.0000 C   0  0  0  0  0  0  0  0  0  0  0  0
   10.4469   -8.3134    0.0000 C   0  0  0  0  0  0  0  0  0  0  0  0
   16.1626   -8.3134    0.0000 C   0  0  0  0  0  0  0  0  0  0  0  0
   14.7336   -8.3134    0.0000 C   0  0  0  0  0  0  0  0  0  0  0  0
   16.8771   -9.5509    0.0000 O   0  5  0  0  0  0  0  0  0  0  0  0
   11.1613  -12.0259    0.0000 O   0  0  0  0  0  0  0  0  0  0  0  0
   12.5903  -12.0259    0.0000 O   0  0  0  0  0  0  0  0  0  0  0  0
   14.0192  -12.0259    0.0000 O   0  5  0  0  0  0  0  0  0  0  0  0
   15.4481  -12.0259    0.0000 O   0  0  0  0  0  0  0  0  0  0  0  0
   16.8771  -11.2009    0.0000 C   0  0  0  0  0  0  0  0  0  0  0  0
   16.8771  -12.0259    0.0000 O   0  0  0  0  0  0  0  0  0  0  0  0
   17.5915  -10.7884    0.0000 N   0  0  0  0  0  0  0  0  0  0  0  0
  1  2  2  0  0  0  0
  2  3  1  0  0  0  0
  3  4  2  0  0  0  0
  4  5  1  0  0  0  0
  1  6  1  0  0  0  0
  7  6  1  0  0  0  0
  6  5  2  0  0  0  0
  5  8  1  0  0  0  0
  8  9  1  0  0  0  0
  7 10  1  0  0  0  0
 11 10  1  0  0  0  0
 10  9  1  0  0  0  0
  9 12  2  0  0  0  0
 12 13  1  0  0  0  0
 11 14  1  0  0  0  0
 15 14  1  0  0  0  0
 14 13  1  0  0  0  0
 13 16  1  0  0  0  0
 16 17  1  0  0  0  0
 17 18  2  0  0  0  0
 15 18  1  0  0  0  0
  1 19  1  0  0  0  0
 15 20  1  6  0  0  0
 14 21  1  6  0  0  0
 10 22  1  6  0  0  0
 13 23  1  6  0  0  0
 19 24  1  0  0  0  0
 19 25  1  0  0  0  0
 20 26  1  0  0  0  0
 20 27  1  0  0  0  0
 18 28  1  0  0  0  0
  4 29  1  0  0  0  0
  8 30  2  0  0  0  0
 12 31  1  0  0  0  0
 16 32  2  0  0  0  0
 17 33  1  0  0  0  0
 33 34  2  0  0  0  0
 33 35  1  0  0  0  0
M  CHG  3  20   1  28  -1  31  -1
M  END

>  <ACTIVITY>
5.00
$$$$
50694

  Mrv0541 05041708492D          

 35 38  0  0  1  0            999 V2000
   11.1613   -9.5509    0.0000 C   0  0  0  0  0  0  0  0  0  0  0  0
   10.4469   -9.9634    0.0000 C   0  0  0  0  0  0  0  0  0  0  0  0
   10.4469  -10.7884    0.0000 C   0  0  0  0  0  0  0  0  0  0  0  0
   11.1613  -11.2009    0.0000 C   0  0  0  0  0  0  0  0  0  0  0  0
   11.8758  -10.7884    0.0000 C   0  0  0  0  0  0  0  0  0  0  0  0
   11.8758   -9.9634    0.0000 C   0  0  0  0  0  0  0  0  0  0  0  0
   12.5903   -9.5509    0.0000 C   0  0  0  0  0  0  0  0  0  0  0  0
   12.5903  -11.2009    0.0000 C   0  0  0  0  0  0  0  0  0  0  0  0
   13.3047  -10.7884    0.0000 C   0  0  0  0  0  0  0  0  0  0  0  0
   13.3047   -9.9634    0.0000 C   0  0  2  0  0  0  0  0  0  0  0  0
   14.0192   -9.5509    0.0000 C   0  0  0  0  0  0  0  0  0  0  0  0
   14.0192  -11.2009    0.0000 C   0  0  0  0  0  0  0  0  0  0  0  0
   14.7337  -10.7884    0.0000 C   0  0  1  0  0  0  0  0  0  0  0  0
   14.7337   -9.9634    0.0000 C   0  0  2  0  0  0  0  0  0  0  0  0
   15.4481   -9.5509    0.0000 C   0  0  1  0  0  0  0  0  0  0  0  0
   15.4481  -11.2009    0.0000 C   0  0  0  0  0  0  0  0  0  0  0  0
   16.1626  -10.7884    0.0000 C   0  0  0  0  0  0  0  0  0  0  0  0
   16.1626   -9.9634    0.0000 C   0  0  0  0  0  0  0  0  0  0  0  0
   11.1613   -8.7259    0.0000 N   0  0  0  0  0  0  0  0  0  0  0  0
   15.4481   -8.7259    0.0000 N   0  0  0  0  0  0  0  0  0  0  0  0
   14.7337   -9.1384    0.0000 H   0  0  0  0  0  0  0  0  0  0  0  0
   13.3047   -9.1384    0.0000 H   0  0  0  0  0  0  0  0  0  0  0  0
   14.7337  -11.6134    0.0000 O   0  0  0  0  0  0  0  0  0  0  0  0
   11.8758   -8.3134    0.0000 C   0  0  0  0  0  0  0  0  0  0  0  0
   10.4469   -8.3134    0.0000 C   0  0  0  0  0  0  0  0  0  0  0  0
   16.1626   -8.3134    0.0000 C   0  0  0  0  0  0  0  0  0  0  0  0
   14.7336   -8.3134    0.0000 C   0  0  0  0  0  0  0  0  0  0  0  0
   16.8771   -9.5509    0.0000 O   0  0  0  0  0  0  0  0  0  0  0  0
   11.1613  -12.0259    0.0000 O   0  0  0  0  0  0  0  0  0  0  0  0
   12.5903  -12.0259    0.0000 O   0  0  0  0  0  0  0  0  0  0  0  0
   14.0192  -12.0259    0.0000 O   0  0  0  0  0  0  0  0  0  0  0  0
   15.4481  -12.0259    0.0000 O   0  0  0  0  0  0  0  0  0  0  0  0
   16.8771  -11.2009    0.0000 C   0  0  0  0  0  0  0  0  0  0  0  0
   16.8771  -12.0259    0.0000 O   0  0  0  0  0  0  0  0  0  0  0  0
   17.5915  -10.7884    0.0000 N   0  0  0  0  0  0  0  0  0  0  0  0
  1  2  2  0  0  0  0
  2  3  1  0  0  0  0
  3  4  2  0  0  0  0
  4  5  1  0  0  0  0
  1  6  1  0  0  0  0
  7  6  1  0  0  0  0
  6  5  2  0  0  0  0
  5  8  1  0  0  0  0
  8  9  1  0  0  0  0
  7 10  1  0  0  0  0
 11 10  1  0  0  0  0
 10  9  1  0  0  0  0
  9 12  2  0  0  0  0
 12 13  1  0  0  0  0
 11 14  1  0  0  0  0
 15 14  1  0  0  0  0
 14 13  1  0  0  0  0
 13 16  1  0  0  0  0
 16 17  1  0  0  0  0
 17 18  2  0  0  0  0
 15 18  1  0  0  0  0
  1 19  1  0  0  0  0
 15 20  1  6  0  0  0
 14 21  1  6  0  0  0
 10 22  1  6  0  0  0
 13 23  1  6  0  0  0
 19 24  1  0  0  0  0
 19 25  1  0  0  0  0
 20 26  1  0  0  0  0
 20 27  1  0  0  0  0
 18 28  1  0  0  0  0
  4 29  1  0  0  0  0
  8 30  2  0  0  0  0
 12 31  1  0  0  0  0
 16 32  2  0  0  0  0
 17 33  1  0  0  0  0
 33 34  2  0  0  0  0
 33 35  1  0  0  0  0
M  END

>  <ACTIVITY>
5.00
$$$$
50697

  Mrv0541 05041708492D          

 37 38  0  0  1  0            999 V2000
   11.1613   -9.5509    0.0000 C   0  0  0  0  0  0  0  0  0  0  0  0
   10.4469   -9.9634    0.0000 C   0  0  0  0  0  0  0  0  0  0  0  0
   10.4469  -10.7884    0.0000 C   0  0  0  0  0  0  0  0  0  0  0  0
   11.1613  -11.2009    0.0000 C   0  0  0  0  0  0  0  0  0  0  0  0
   11.8758  -10.7884    0.0000 C   0  0  0  0  0  0  0  0  0  0  0  0
   11.8758   -9.9634    0.0000 C   0  0  0  0  0  0  0  0  0  0  0  0
   12.5903   -9.5509    0.0000 C   0  0  0  0  0  0  0  0  0  0  0  0
   12.5903  -11.2009    0.0000 C   0  0  0  0  0  0  0  0  0  0  0  0
   13.3047  -10.7884    0.0000 C   0  0  0  0  0  0  0  0  0  0  0  0
   13.3047   -9.9634    0.0000 C   0  0  2  0  0  0  0  0  0  0  0  0
   14.0192   -9.5509    0.0000 C   0  0  0  0  0  0  0  0  0  0  0  0
   14.0192  -11.2009    0.0000 C   0  0  0  0  0  0  0  0  0  0  0  0
   14.7337  -10.7884    0.0000 C   0  0  1  0  0  0  0  0  0  0  0  0
   14.7337   -9.9634    0.0000 C   0  0  2  0  0  0  0  0  0  0  0  0
   15.4481   -9.5509    0.0000 C   0  0  1  0  0  0  0  0  0  0  0  0
   15.4481  -11.2009    0.0000 C   0  0  0  0  0  0  0  0  0  0  0  0
   16.1626  -10.7884    0.0000 C   0  0  0  0  0  0  0  0  0  0  0  0
   16.1626   -9.9634    0.0000 C   0  0  0  0  0  0  0  0  0  0  0  0
   11.1613   -8.7259    0.0000 N   0  0  0  0  0  0  0  0  0  0  0  0
   15.4481   -8.7259    0.0000 N   0  0  0  0  0  0  0  0  0  0  0  0
   14.7337   -9.1384    0.0000 H   0  0  0  0  0  0  0  0  0  0  0  0
   13.3047   -9.1384    0.0000 H   0  0  0  0  0  0  0  0  0  0  0  0
   14.7337  -11.6134    0.0000 O   0  0  0  0  0  0  0  0  0  0  0  0
   11.8758   -8.3134    0.0000 C   0  0  0  0  0  0  0  0  0  0  0  0
   10.4469   -8.3134    0.0000 C   0  0  0  0  0  0  0  0  0  0  0  0
   16.1626   -8.3134    0.0000 C   0  0  0  0  0  0  0  0  0  0  0  0
   14.7336   -8.3134    0.0000 C   0  0  0  0  0  0  0  0  0  0  0  0
   16.8771   -9.5509    0.0000 O   0  0  0  0  0  0  0  0  0  0  0  0
   11.1613  -12.0259    0.0000 O   0  0  0  0  0  0  0  0  0  0  0  0
   12.5903  -12.0259    0.0000 O   0  0  0  0  0  0  0  0  0  0  0  0
   14.0192  -12.0259    0.0000 O   0  0  0  0  0  0  0  0  0  0  0  0
   15.4481  -12.0259    0.0000 O   0  0  0  0  0  0  0  0  0  0  0  0
   16.8771  -11.2009    0.0000 C   0  0  0  0  0  0  0  0  0  0  0  0
   16.8771  -12.0259    0.0000 O   0  0  0  0  0  0  0  0  0  0  0  0
   17.5915  -10.7884    0.0000 N   0  0  0  0  0  0  0  0  0  0  0  0
   16.4207   -7.4079    0.0000 Cl  0  5  0  0  0  0  0  0  0  0  0  0
   15.5359   -7.4079    0.0000 H   0  3  0  0  0  0  0  0  0  0  0  0
  1  2  2  0  0  0  0
  2  3  1  0  0  0  0
  3  4  2  0  0  0  0
  4  5  1  0  0  0  0
  1  6  1  0  0  0  0
  7  6  1  0  0  0  0
  6  5  2  0  0  0  0
  5  8  1  0  0  0  0
  8  9  1  0  0  0  0
  7 10  1  0  0  0  0
 11 10  1  0  0  0  0
 10  9  1  0  0  0  0
  9 12  2  0  0  0  0
 12 13  1  0  0  0  0
 11 14  1  0  0  0  0
 15 14  1  0  0  0  0
 14 13  1  0  0  0  0
 13 16  1  0  0  0  0
 16 17  1  0  0  0  0
 17 18  2  0  0  0  0
 15 18  1  0  0  0  0
  1 19  1  0  0  0  0
 15 20  1  6  0  0  0
 14 21  1  6  0  0  0
 10 22  1  6  0  0  0
 13 23  1  6  0  0  0
 19 24  1  0  0  0  0
 19 25  1  0  0  0  0
 20 26  1  0  0  0  0
 20 27  1  0  0  0  0
 18 28  1  0  0  0  0
  4 29  1  0  0  0  0
  8 30  2  0  0  0  0
 12 31  1  0  0  0  0
 16 32  2  0  0  0  0
 17 33  1  0  0  0  0
 33 34  2  0  0  0  0
 33 35  1  0  0  0  0
M  CHG  2  36  -1  37   1
M  END

>  <ACTIVITY>
5.00
$$$$
29569
 
  Mrv0541 05041708492D          
 
 42 45  0  0  1  0            999 V2000
   13.5355  -11.1429    0.0000 C   0  0  0  0  0  0  0  0  0  0  0  0
   13.5355  -11.9689    0.0000 C   0  0  0  0  0  0  0  0  0  0  0  0
   14.2525  -12.3819    0.0000 C   0  0  0  0  0  0  0  0  0  0  0  0
   14.2525  -10.7299    0.0000 C   0  0  0  0  0  0  0  0  0  0  0  0
   14.9654  -11.1429    0.0000 C   0  0  0  0  0  0  0  0  0  0  0  0
   14.9618  -11.9689    0.0000 C   0  0  0  0  0  0  0  0  0  0  0  0
   15.6754  -12.3849    0.0000 C   0  0  0  0  0  0  0  0  0  0  0  0
   15.6824  -10.7330    0.0000 C   0  0  0  0  0  0  0  0  0  0  0  0
   16.3960  -11.1490    0.0000 C   0  0  2  0  0  0  0  0  0  0  0  0
   16.3886  -11.9728    0.0000 C   0  0  0  0  0  0  0  0  0  0  0  0
   17.0982  -12.3912    0.0000 C   0  0  0  0  0  0  0  0  0  0  0  0
   17.1131  -10.7435    0.0000 C   0  0  0  0  0  0  0  0  0  0  0  0
   17.8229  -11.1620    0.0000 C   0  0  2  0  0  0  0  0  0  0  0  0
   17.8109  -11.9855    0.0000 C   0  0  1  0  0  0  0  0  0  0  0  0
   18.5183  -12.4076    0.0000 C   0  0  0  0  0  0  0  0  0  0  0  0
   19.2787  -12.0061    0.0000 C   0  0  0  0  0  0  0  0  0  0  0  0
   19.2494  -11.1826    0.0000 C   0  0  0  0  0  0  0  0  0  0  0  0
   18.5420  -10.7604    0.0000 C   0  0  1  0  0  0  0  0  0  0  0  0
   12.8203  -12.3823    0.0000 N   0  0  0  0  0  0  0  0  0  0  0  0
   12.1049  -11.9696    0.0000 C   0  0  0  0  0  0  0  0  0  0  0  0
   11.3897  -12.3830    0.0000 C   0  0  0  0  0  0  0  0  0  0  0  0
   10.6742  -11.9704    0.0000 N   0  0  0  0  0  0  0  0  0  0  0  0
    9.9592  -12.3838    0.0000 C   0  0  0  0  0  0  0  0  0  0  0  0
   10.6738  -11.1444    0.0000 C   0  0  0  0  0  0  0  0  0  0  0  0
   12.1044  -11.1436    0.0000 O   0  0  0  0  0  0  0  0  0  0  0  0
   19.9705  -10.7799    0.0000 O   0  0  0  0  0  0  0  0  0  0  0  0
   19.9467  -12.4293    0.0000 C   0  0  0  0  0  0  0  0  0  0  0  0
   19.9348  -13.2552    0.0000 O   0  0  0  0  0  0  0  0  0  0  0  0
   20.6680  -12.0268    0.0000 N   0  0  0  0  0  0  0  0  0  0  0  0
   18.5540   -9.9346    0.0000 N   0  0  0  0  0  0  0  0  0  0  0  0
   19.2752   -9.5319    0.0000 C   0  0  0  0  0  0  0  0  0  0  0  0
   17.8447   -9.5112    0.0000 C   0  0  0  0  0  0  0  0  0  0  0  0
   14.2535   -9.9039    0.0000 N   0  0  0  0  0  0  0  0  0  0  0  0
   14.9694   -9.4919    0.0000 C   0  0  0  0  0  0  0  0  0  0  0  0
   13.5388   -9.4900    0.0000 C   0  0  0  0  0  0  0  0  0  0  0  0
   15.6738  -13.2109    0.0000 O   0  0  0  0  0  0  0  0  0  0  0  0
   17.0920  -13.2172    0.0000 O   0  0  0  0  0  0  0  0  0  0  0  0
   18.5064  -13.2335    0.0000 O   0  0  0  0  0  0  0  0  0  0  0  0
   14.2544  -13.2079    0.0000 O   0  0  0  0  0  0  0  0  0  0  0  0
   17.8030  -12.8074    0.0000 O   0  0  0  0  0  0  0  0  0  0  0  0
   16.3889  -10.3211    0.0000 H   0  0  0  0  0  0  0  0  0  0  0  0
   17.8156  -10.3336    0.0000 H   0  0  0  0  0  0  0  0  0  0  0  0
  5  4  2  0  0  0  0
 19 20  1  0  0  0  0
  4  1  1  0  0  0  0
 20 21  1  0  0  0  0
 21 22  1  0  0  0  0
  1  2  2  0  0  0  0
 22 23  1  0  0  0  0
  9 10  1  0  0  0  0
 22 24  1  0  0  0  0
 10 11  2  0  0  0  0
 20 25  2  0  0  0  0
 11 14  1  0  0  0  0
 17 26  1  0  0  0  0
 13 12  1  0  0  0  0
 16 27  1  0  0  0  0
 12  9  1  0  0  0  0
 27 28  2  0  0  0  0
  2  3  1  0  0  0  0
 27 29  1  0  0  0  0
  3  6  2  0  0  0  0
 18 30  1  6  0  0  0
  5  6  1  0  0  0  0
 30 31  1  0  0  0  0
  6  7  1  0  0  0  0
 30 32  1  0  0  0  0
  7 10  1  0  0  0  0
  4 33  1  0  0  0  0
  9  8  1  0  0  0  0
 33 34  1  0  0  0  0
 13 14  1  0  0  0  0
 33 35  1  0  0  0  0
 14 15  1  0  0  0  0
  7 36  2  0  0  0  0
 15 16  1  0  0  0  0
 11 37  1  0  0  0  0
 16 17  2  0  0  0  0
 15 38  2  0  0  0  0
 17 18  1  0  0  0  0
  3 39  1  0  0  0  0
 18 13  1  0  0  0  0
 14 40  1  6  0  0  0
  8  5  1  0  0  0  0
  9 41  1  6  0  0  0
  2 19  1  0  0  0  0
 13 42  1  6  0  0  0
M  END

>  <ACTIVITY>
5.00
$$$$
2637

  Mrv0541 05041708492D          

 40 42  0  0  1  0            999 V2000
    0.7145   -0.4125    0.0000 C   0  0  1  0  0  0  0  0  0  0  0  0
    0.0000    0.8250    0.0000 C   0  0  1  0  0  0  0  0  0  0  0  0
    0.0000   -0.8250    0.0000 C   0  0  1  0  0  0  0  0  0  0  0  0
   -0.7145   -0.4125    0.0000 C   0  0  2  0  0  0  0  0  0  0  0  0
   -0.7145    0.4125    0.0000 C   0  0  2  0  0  0  0  0  0  0  0  0
   -0.7144   -2.0625    0.0000 C   0  0  2  0  0  0  0  0  0  0  0  0
   -0.7144   -2.8875    0.0000 C   0  0  1  0  0  0  0  0  0  0  0  0
   -1.4289   -3.3000    0.0000 C   0  0  2  0  0  0  0  0  0  0  0  0
   -2.1434   -2.8875    0.0000 C   0  0  1  0  0  0  0  0  0  0  0  0
   -2.1434   -2.0625    0.0000 C   0  0  2  0  0  0  0  0  0  0  0  0
   -1.4289   -1.6500    0.0000 O   0  0  0  0  0  0  0  0  0  0  0  0
   -2.8578   -3.3000    0.0000 O   0  0  0  0  0  0  0  0  0  0  0  0
   -2.8578   -1.6500    0.0000 C   0  0  0  0  0  0  0  0  0  0  0  0
   -1.4289   -4.1250    0.0000 N   0  0  0  0  0  0  0  0  0  0  0  0
   -3.5723   -2.0625    0.0000 O   0  0  0  0  0  0  0  0  0  0  0  0
    0.0001    1.6500    0.0000 N   0  0  0  0  0  0  0  0  0  0  0  0
   -1.4289   -0.8250    0.0000 O   0  0  0  0  0  0  0  0  0  0  0  0
    0.0001   -1.6500    0.0000 O   0  0  0  0  0  0  0  0  0  0  0  0
   -1.4289    0.8250    0.0000 O   0  0  0  0  0  0  0  0  0  0  0  0
   -1.4289    1.6500    0.0000 C   0  0  1  0  0  0  0  0  0  0  0  0
   -0.7144    2.0625    0.0000 O   0  0  0  0  0  0  0  0  0  0  0  0
   -0.7144    2.8875    0.0000 C   0  0  1  0  0  0  0  0  0  0  0  0
   -1.4289    3.3000    0.0000 C   0  0  2  0  0  0  0  0  0  0  0  0
   -2.1434    2.8875    0.0000 C   0  0  1  0  0  0  0  0  0  0  0  0
   -2.1434    2.0625    0.0000 C   0  0  1  0  0  0  0  0  0  0  0  0
    0.0001    3.3000    0.0000 C   0  0  0  0  0  0  0  0  0  0  0  0
   -2.8578    1.6500    0.0000 O   0  0  0  0  0  0  0  0  0  0  0  0
   -2.8578    3.3000    0.0000 O   0  0  0  0  0  0  0  0  0  0  0  0
   -1.4289    4.1250    0.0000 O   0  0  0  0  0  0  0  0  0  0  0  0
    0.7145    0.4125    0.0000 C   0  0  0  0  0  0  0  0  0  0  0  0
    1.4290   -0.8250    0.0000 N   0  0  0  0  0  0  0  0  0  0  0  0
    3.5724   -0.4125    0.0000 C   0  0  0  0  0  0  0  0  0  0  0  0
    2.1435   -0.4125    0.0000 C   0  0  0  0  0  0  0  0  0  0  0  0
    2.1435    0.4125    0.0000 O   0  0  0  0  0  0  0  0  0  0  0  0
    4.2869   -0.8250    0.0000 C   0  0  0  0  0  0  0  0  0  0  0  0
    5.0014   -0.4125    0.0000 N   0  0  0  0  0  0  0  0  0  0  0  0
    2.8579   -0.8250    0.0000 C   0  0  1  0  0  0  0  0  0  0  0  0
    2.8579   -1.6500    0.0000 O   0  0  0  0  0  0  0  0  0  0  0  0
    0.7145    2.8875    0.0000 N   0  0  0  0  0  0  0  0  0  0  0  0
    0.0001   -3.3000    0.0000 O   0  0  0  0  0  0  0  0  0  0  0  0
 30  1  1  0  0  0  0
  1 31  1  1  0  0  0
  2 30  1  0  0  0  0
  2 16  1  1  0  0  0
  1  3  1  0  0  0  0
  3 18  1  6  0  0  0
  3  4  1  0  0  0  0
  4 17  1  1  0  0  0
  4  5  1  0  0  0  0
  5  2  1  0  0  0  0
  5 19  1  6  0  0  0
  6 18  1  6  0  0  0
  6  7  1  0  0  0  0
 11  6  1  0  0  0  0
  7  8  1  0  0  0  0
  7 40  1  6  0  0  0
  8  9  1  0  0  0  0
  8 14  1  1  0  0  0
  9 10  1  0  0  0  0
  9 12  1  6  0  0  0
 10 11  1  0  0  0  0
 10 13  1  1  0  0  0
 13 15  1  0  0  0  0
 20 19  1  6  0  0  0
 20 21  1  0  0  0  0
 25 20  1  0  0  0  0
 21 22  1  0  0  0  0
 22 23  1  0  0  0  0
 22 26  1  1  0  0  0
 23 24  1  0  0  0  0
 23 29  1  6  0  0  0
 24 25  1  0  0  0  0
 24 28  1  1  0  0  0
 25 27  1  6  0  0  0
 26 39  1  0  0  0  0
 31 33  1  0  0  0  0
 37 33  1  0  0  0  0
 37 32  1  0  0  0  0
 32 35  1  0  0  0  0
 33 34  2  0  0  0  0
 35 36  1  0  0  0  0
 37 38  1  6  0  0  0
M  END

>  <ACTIVITY>
5.00
$$$$
2638

  Mrv0541 05041708492D          

 50 50  0  0  1  0            999 V2000
    0.7145   -0.4125    0.0000 C   0  0  1  0  0  0  0  0  0  0  0  0
    0.0000    0.8250    0.0000 C   0  0  1  0  0  0  0  0  0  0  0  0
    0.0000   -0.8250    0.0000 C   0  0  1  0  0  0  0  0  0  0  0  0
   -0.7145   -0.4125    0.0000 C   0  0  2  0  0  0  0  0  0  0  0  0
   -0.7145    0.4125    0.0000 C   0  0  2  0  0  0  0  0  0  0  0  0
   -0.7144   -2.0625    0.0000 C   0  0  2  0  0  0  0  0  0  0  0  0
   -0.7144   -2.8875    0.0000 C   0  0  1  0  0  0  0  0  0  0  0  0
   -1.4289   -3.3000    0.0000 C   0  0  2  0  0  0  0  0  0  0  0  0
   -2.1434   -2.8875    0.0000 C   0  0  1  0  0  0  0  0  0  0  0  0
   -2.1434   -2.0625    0.0000 C   0  0  2  0  0  0  0  0  0  0  0  0
   -1.4289   -1.6500    0.0000 O   0  0  0  0  0  0  0  0  0  0  0  0
   -2.8578   -3.3000    0.0000 O   0  0  0  0  0  0  0  0  0  0  0  0
   -2.8578   -1.6500    0.0000 C   0  0  0  0  0  0  0  0  0  0  0  0
   -1.4289   -4.1250    0.0000 N   0  0  0  0  0  0  0  0  0  0  0  0
   -3.5723   -2.0625    0.0000 O   0  0  0  0  0  0  0  0  0  0  0  0
    0.0001    1.6500    0.0000 N   0  0  0  0  0  0  0  0  0  0  0  0
   -1.4289   -0.8250    0.0000 O   0  0  0  0  0  0  0  0  0  0  0  0
    0.0001   -1.6500    0.0000 O   0  0  0  0  0  0  0  0  0  0  0  0
   -1.4289    0.8250    0.0000 O   0  0  0  0  0  0  0  0  0  0  0  0
   -1.4289    1.6500    0.0000 C   0  0  1  0  0  0  0  0  0  0  0  0
   -0.7144    2.0625    0.0000 O   0  0  0  0  0  0  0  0  0  0  0  0
   -0.7144    2.8875    0.0000 C   0  0  1  0  0  0  0  0  0  0  0  0
   -1.4289    3.3000    0.0000 C   0  0  2  0  0  0  0  0  0  0  0  0
   -2.1434    2.8875    0.0000 C   0  0  1  0  0  0  0  0  0  0  0  0
   -2.1434    2.0625    0.0000 C   0  0  1  0  0  0  0  0  0  0  0  0
    0.0001    3.3000    0.0000 C   0  0  0  0  0  0  0  0  0  0  0  0
   -2.8578    1.6500    0.0000 O   0  0  0  0  0  0  0  0  0  0  0  0
   -2.8578    3.3000    0.0000 O   0  0  0  0  0  0  0  0  0  0  0  0
   -1.4289    4.1250    0.0000 O   0  0  0  0  0  0  0  0  0  0  0  0
    0.7145    0.4125    0.0000 C   0  0  0  0  0  0  0  0  0  0  0  0
    1.4290   -0.8250    0.0000 N   0  0  0  0  0  0  0  0  0  0  0  0
    3.5724   -0.4125    0.0000 C   0  0  0  0  0  0  0  0  0  0  0  0
    2.1435   -0.4125    0.0000 C   0  0  0  0  0  0  0  0  0  0  0  0
    2.1435    0.4125    0.0000 O   0  0  0  0  0  0  0  0  0  0  0  0
    4.2869   -0.8250    0.0000 C   0  0  0  0  0  0  0  0  0  0  0  0
    5.0014   -0.4125    0.0000 N   0  0  0  0  0  0  0  0  0  0  0  0
    2.8579   -0.8250    0.0000 C   0  0  1  0  0  0  0  0  0  0  0  0
    2.8579   -1.6500    0.0000 O   0  0  0  0  0  0  0  0  0  0  0  0
    0.7145    2.8875    0.0000 N   0  0  0  0  0  0  0  0  0  0  0  0
    3.5724    2.8875    0.0000 O   0  0  0  0  0  0  0  0  0  0  0  0
    4.2869    4.1250    0.0000 O   0  0  0  0  0  0  0  0  0  0  0  0
    4.2869    3.3000    0.0000 S   0  0  0  0  0  0  0  0  0  0  0  0
    4.2869    2.4750    0.0000 O   0  0  0  0  0  0  0  0  0  0  0  0
    0.0001   -3.3000    0.0000 O   0  0  0  0  0  0  0  0  0  0  0  0
    5.0013    2.8875    0.0000 O   0  0  0  0  0  0  0  0  0  0  0  0
    6.4302    2.8758    0.0000 O   0  0  0  0  0  0  0  0  0  0  0  0
    7.1863    4.0883    0.0000 O   0  0  0  0  0  0  0  0  0  0  0  0
    7.8583    2.8273    0.0000 O   0  0  0  0  0  0  0  0  0  0  0  0
    7.1583    3.2638    0.0000 S   0  0  0  0  0  0  0  0  0  0  0  0
    7.1303    2.4393    0.0000 O   0  0  0  0  0  0  0  0  0  0  0  0
 30  1  1  0  0  0  0
  1 31  1  1  0  0  0
  2 30  1  0  0  0  0
  2 16  1  1  0  0  0
  1  3  1  0  0  0  0
  3 18  1  6  0  0  0
  3  4  1  0  0  0  0
  4 17  1  1  0  0  0
  4  5  1  0  0  0  0
  5  2  1  0  0  0  0
  5 19  1  6  0  0  0
  6 18  1  6  0  0  0
  6  7  1  0  0  0  0
 11  6  1  0  0  0  0
  7  8  1  0  0  0  0
  7 44  1  6  0  0  0
  8  9  1  0  0  0  0
  8 14  1  1  0  0  0
  9 10  1  0  0  0  0
  9 12  1  6  0  0  0
 10 11  1  0  0  0  0
 10 13  1  1  0  0  0
 13 15  1  0  0  0  0
 20 19  1  6  0  0  0
 20 21  1  0  0  0  0
 25 20  1  0  0  0  0
 21 22  1  0  0  0  0
 22 23  1  0  0  0  0
 22 26  1  1  0  0  0
 23 24  1  0  0  0  0
 23 29  1  6  0  0  0
 24 25  1  0  0  0  0
 24 28  1  1  0  0  0
 25 27  1  6  0  0  0
 26 39  1  0  0  0  0
 31 33  1  0  0  0  0
 37 33  1  0  0  0  0
 37 32  1  0  0  0  0
 32 35  1  0  0  0  0
 33 34  2  0  0  0  0
 35 36  1  0  0  0  0
 37 38  1  6  0  0  0
 40 42  1  0  0  0  0
 42 41  2  0  0  0  0
 42 45  1  0  0  0  0
 42 43  2  0  0  0  0
 46 49  1  0  0  0  0
 49 47  2  0  0  0  0
 49 48  1  0  0  0  0
 49 50  2  0  0  0  0
M  END

>  <ACTIVITY>
5.00
$$$$
84739

  Mrv0541 05041708492D          

 40 42  0  0  0  0            999 V2000
    1.8766   -1.3112    0.0000 C   0  0  1  0  0  0  0  0  0  0  0  0
    1.1621   -0.0737    0.0000 C   0  0  1  0  0  0  0  0  0  0  0  0
    1.1621   -1.7237    0.0000 C   0  0  1  0  0  0  0  0  0  0  0  0
    0.4476   -1.3112    0.0000 C   0  0  2  0  0  0  0  0  0  0  0  0
    0.4476   -0.4862    0.0000 C   0  0  2  0  0  0  0  0  0  0  0  0
    0.4477   -2.9612    0.0000 C   0  0  2  0  0  0  0  0  0  0  0  0
    0.4477   -3.7861    0.0000 C   0  0  1  0  0  0  0  0  0  0  0  0
   -0.2668   -4.1986    0.0000 C   0  0  2  0  0  0  0  0  0  0  0  0
   -0.9813   -3.7861    0.0000 C   0  0  1  0  0  0  0  0  0  0  0  0
   -0.9813   -2.9612    0.0000 C   0  0  2  0  0  0  0  0  0  0  0  0
   -0.2668   -2.5487    0.0000 O   0  0  0  0  0  0  0  0  0  0  0  0
   -1.6956   -4.1986    0.0000 O   0  0  0  0  0  0  0  0  0  0  0  0
   -1.6956   -2.5487    0.0000 C   0  0  0  0  0  0  0  0  0  0  0  0
   -0.2668   -5.0236    0.0000 N   0  3  0  0  0  0  0  0  0  0  0  0
   -2.4101   -2.9612    0.0000 O   0  0  0  0  0  0  0  0  0  0  0  0
    1.1622    0.7512    0.0000 N   0  3  0  0  0  0  0  0  0  0  0  0
   -0.2668   -1.7237    0.0000 O   0  0  0  0  0  0  0  0  0  0  0  0
    1.1622   -2.5487    0.0000 O   0  0  0  0  0  0  0  0  0  0  0  0
   -0.2668   -0.0737    0.0000 O   0  0  0  0  0  0  0  0  0  0  0  0
   -0.2668    0.7512    0.0000 C   0  0  1  0  0  0  0  0  0  0  0  0
    0.4477    1.1637    0.0000 O   0  0  0  0  0  0  0  0  0  0  0  0
    0.4477    1.9887    0.0000 C   0  0  1  0  0  0  0  0  0  0  0  0
   -0.2668    2.4012    0.0000 C   0  0  2  0  0  0  0  0  0  0  0  0
   -0.9813    1.9887    0.0000 C   0  0  1  0  0  0  0  0  0  0  0  0
   -0.9813    1.1637    0.0000 C   0  0  1  0  0  0  0  0  0  0  0  0
    1.1622    2.4012    0.0000 C   0  0  0  0  0  0  0  0  0  0  0  0
   -1.6956    0.7512    0.0000 O   0  0  0  0  0  0  0  0  0  0  0  0
   -1.6956    2.4012    0.0000 O   0  0  0  0  0  0  0  0  0  0  0  0
   -0.2668    3.2262    0.0000 O   0  0  0  0  0  0  0  0  0  0  0  0
    1.8766   -0.4862    0.0000 C   0  0  0  0  0  0  0  0  0  0  0  0
    2.5910   -1.7237    0.0000 N   0  0  0  0  0  0  0  0  0  0  0  0
    4.7344   -1.3112    0.0000 C   0  0  0  0  0  0  0  0  0  0  0  0
    3.3055   -1.3112    0.0000 C   0  0  0  0  0  0  0  0  0  0  0  0
    3.3055   -0.4862    0.0000 O   0  0  0  0  0  0  0  0  0  0  0  0
    5.4488   -1.7237    0.0000 C   0  0  0  0  0  0  0  0  0  0  0  0
    6.1633   -1.3112    0.0000 N   0  3  0  0  0  0  0  0  0  0  0  0
    4.0199   -1.7237    0.0000 C   0  0  1  0  0  0  0  0  0  0  0  0
    4.0199   -2.5487    0.0000 O   0  0  0  0  0  0  0  0  0  0  0  0
    1.8766    1.9887    0.0000 N   0  3  0  0  0  0  0  0  0  0  0  0
    1.1622   -4.1986    0.0000 O   0  0  0  0  0  0  0  0  0  0  0  0
 30  1  1  0  0  0  0
  1 31  1  1  0  0  0
  2 30  1  0  0  0  0
  2 16  1  1  0  0  0
  1  3  1  0  0  0  0
  3 18  1  6  0  0  0
  3  4  1  0  0  0  0
  4 17  1  1  0  0  0
  4  5  1  0  0  0  0
  5  2  1  0  0  0  0
  5 19  1  6  0  0  0
  6 18  1  6  0  0  0
  6  7  1  0  0  0  0
 11  6  1  0  0  0  0
  7  8  1  0  0  0  0
  7 40  1  6  0  0  0
  8  9  1  0  0  0  0
  8 14  1  1  0  0  0
  9 10  1  0  0  0  0
  9 12  1  6  0  0  0
 10 11  1  0  0  0  0
 10 13  1  1  0  0  0
 13 15  1  0  0  0  0
 20 19  1  6  0  0  0
 20 21  1  0  0  0  0
 25 20  1  0  0  0  0
 21 22  1  0  0  0  0
 22 23  1  0  0  0  0
 22 26  1  1  0  0  0
 23 24  1  0  0  0  0
 23 29  1  6  0  0  0
 24 25  1  0  0  0  0
 24 28  1  1  0  0  0
 25 27  1  6  0  0  0
 26 39  1  0  0  0  0
 31 33  1  0  0  0  0
 37 33  1  0  0  0  0
 37 32  1  0  0  0  0
 32 35  1  0  0  0  0
 33 34  2  0  0  0  0
 35 36  1  0  0  0  0
 37 38  1  6  0  0  0
M  CHG  4  14   1  16   1  36   1  39   1
M  END

>  <ACTIVITY>
5.00
$$$$
28971

  Mrv0541 05041708492D          

 25 27  0  0  1  0            999 V2000
    8.5554   -3.9581    0.0000 C   0  0  0  0  0  0  0  0  0  0  0  0
    7.8409   -4.3706    0.0000 C   0  0  0  0  0  0  0  0  0  0  0  0
    7.8409   -5.1956    0.0000 C   0  0  0  0  0  0  0  0  0  0  0  0
    8.5554   -5.6081    0.0000 C   0  0  0  0  0  0  0  0  0  0  0  0
    9.2699   -5.1956    0.0000 C   0  0  0  0  0  0  0  0  0  0  0  0
    9.2699   -4.3706    0.0000 C   0  0  0  0  0  0  0  0  0  0  0  0
   12.1278   -4.3706    0.0000 C   0  0  1  0  0  0  0  0  0  0  0  0
   14.9411   -4.3781    0.0000 C   0  0  0  0  0  0  0  0  0  0  0  0
   14.2223   -4.7831    0.0000 C   0  0  0  0  0  0  0  0  0  0  0  0
   14.9411   -5.1881    0.0000 C   0  0  0  0  0  0  0  0  0  0  0  0
    9.9844   -3.9581    0.0000 C   0  0  2  0  0  0  0  0  0  0  0  0
   11.4133   -3.9581    0.0000 N   0  0  0  0  0  0  0  0  0  0  0  0
   12.9528   -4.3706    0.0000 C   0  0  1  0  0  0  0  0  0  0  0  0
   13.7374   -5.4506    0.0000 C   0  0  2  0  0  0  0  0  0  0  0  0
   14.7993   -6.4068    0.0000 O   0  0  0  0  0  0  0  0  0  0  0  0
   13.9923   -6.2351    0.0000 C   0  0  0  0  0  0  0  0  0  0  0  0
   13.4403   -6.8482    0.0000 O   0  0  0  0  0  0  0  0  0  0  0  0
   10.6988   -4.3706    0.0000 C   0  0  0  0  0  0  0  0  0  0  0  0
   10.6988   -5.1956    0.0000 O   0  0  0  0  0  0  0  0  0  0  0  0
   12.1278   -5.1956    0.0000 C   0  0  0  0  0  0  0  0  0  0  0  0
   13.7374   -4.1156    0.0000 S   0  0  0  0  0  0  0  0  0  0  0  0
   12.9528   -5.1956    0.0000 N   0  0  0  0  0  0  0  0  0  0  0  0
    9.9844   -3.1331    0.0000 N   0  0  0  0  0  0  0  0  0  0  0  0
   12.9528   -3.5456    0.0000 H   0  0  0  0  0  0  0  0  0  0  0  0
   11.5444   -5.7790    0.0000 O   0  0  0  0  0  0  0  0  0  0  0  0
  1  2  1  0  0  0  0
  1  6  2  0  0  0  0
  2  3  2  0  0  0  0
  3  4  1  0  0  0  0
  4  5  2  0  0  0  0
  5  6  1  0  0  0  0
  6 11  1  0  0  0  0
 11 18  1  0  0  0  0
 18 12  1  0  0  0  0
  7 12  1  1  0  0  0
  7 20  1  0  0  0  0
  7 13  1  0  0  0  0
 22 20  1  0  0  0  0
 22 14  1  0  0  0  0
 13 22  1  0  0  0  0
 21 13  1  0  0  0  0
 21  9  1  0  0  0  0
 14  9  1  0  0  0  0
  9  8  1  0  0  0  0
  9 10  1  0  0  0  0
 11 23  1  1  0  0  0
 14 16  1  6  0  0  0
 16 15  1  0  0  0  0
 16 17  2  0  0  0  0
 18 19  2  0  0  0  0
 13 24  1  6  0  0  0
 20 25  2  0  0  0  0
M  END

>  <ACTIVITY>
5.00
$$$$
51343

  Mrv0541 05041708492D          

 72 77  0  0  0  0            999 V2000
   -1.8313   -2.0625    0.0000 C   0  0  0  0  0  0  0  0  0  0  0  0
   -2.5458   -2.4750    0.0000 C   0  0  0  0  0  0  0  0  0  0  0  0
   -2.5458   -3.3000    0.0000 C   0  0  0  0  0  0  0  0  0  0  0  0
   -1.8313   -3.7125    0.0000 C   0  0  0  0  0  0  0  0  0  0  0  0
   -1.1168   -3.3000    0.0000 C   0  0  0  0  0  0  0  0  0  0  0  0
   -1.1168   -2.4750    0.0000 C   0  0  0  0  0  0  0  0  0  0  0  0
    1.7411   -2.4750    0.0000 C   0  0  1  0  0  0  0  0  0  0  0  0
    4.5544   -2.4825    0.0000 C   0  0  0  0  0  0  0  0  0  0  0  0
    3.8356   -2.8875    0.0000 C   0  0  0  0  0  0  0  0  0  0  0  0
    4.5544   -3.2925    0.0000 C   0  0  0  0  0  0  0  0  0  0  0  0
   -0.4023   -2.0625    0.0000 C   0  0  2  0  0  0  0  0  0  0  0  0
    1.0266   -2.0625    0.0000 N   0  0  0  0  0  0  0  0  0  0  0  0
    2.5661   -2.4750    0.0000 C   0  0  1  0  0  0  0  0  0  0  0  0
    3.3507   -3.5549    0.0000 C   0  0  2  0  0  0  0  0  0  0  0  0
    4.4126   -4.5111    0.0000 O   0  5  0  0  0  0  0  0  0  0  0  0
    3.6056   -4.3395    0.0000 C   0  0  0  0  0  0  0  0  0  0  0  0
    3.0536   -4.9526    0.0000 O   0  0  0  0  0  0  0  0  0  0  0  0
    0.3121   -2.4750    0.0000 C   0  0  0  0  0  0  0  0  0  0  0  0
    0.3121   -3.3000    0.0000 O   0  0  0  0  0  0  0  0  0  0  0  0
    1.7411   -3.3000    0.0000 C   0  0  0  0  0  0  0  0  0  0  0  0
    3.3507   -2.2200    0.0000 S   0  0  0  0  0  0  0  0  0  0  0  0
    2.5661   -3.3000    0.0000 N   0  0  0  0  0  0  0  0  0  0  0  0
   -0.4023   -1.2375    0.0000 N   0  0  0  0  0  0  0  0  0  0  0  0
    2.5661   -1.6500    0.0000 H   0  0  0  0  0  0  0  0  0  0  0  0
    1.1577   -3.8833    0.0000 O   0  0  0  0  0  0  0  0  0  0  0  0
    0.3121   -6.6000    0.0000 C   0  0  0  0  0  0  0  0  0  0  0  0
    0.3121   -7.4250    0.0000 O   0  0  0  0  0  0  0  0  0  0  0  0
   -1.8313   -6.1875    0.0000 C   0  0  0  0  0  0  0  0  0  0  0  0
   -2.5458   -6.6000    0.0000 C   0  0  0  0  0  0  0  0  0  0  0  0
   -2.5458   -7.4250    0.0000 C   0  0  0  0  0  0  0  0  0  0  0  0
   -1.8313   -7.8375    0.0000 C   0  0  0  0  0  0  0  0  0  0  0  0
   -1.1168   -7.4250    0.0000 C   0  0  0  0  0  0  0  0  0  0  0  0
   -1.1168   -6.6000    0.0000 C   0  0  0  0  0  0  0  0  0  0  0  0
    1.7411   -6.6000    0.0000 C   0  0  1  0  0  0  0  0  0  0  0  0
    4.5544   -6.6075    0.0000 C   0  0  0  0  0  0  0  0  0  0  0  0
    3.8356   -7.0125    0.0000 C   0  0  0  0  0  0  0  0  0  0  0  0
    4.5544   -7.4175    0.0000 C   0  0  0  0  0  0  0  0  0  0  0  0
   -0.4023   -6.1875    0.0000 C   0  0  1  0  0  0  0  0  0  0  0  0
    1.0266   -6.1875    0.0000 N   0  0  0  0  0  0  0  0  0  0  0  0
    2.5661   -6.6000    0.0000 C   0  0  1  0  0  0  0  0  0  0  0  0
    3.3507   -7.6799    0.0000 C   0  0  2  0  0  0  0  0  0  0  0  0
    4.4126   -8.6361    0.0000 O   0  5  0  0  0  0  0  0  0  0  0  0
    3.6056   -8.4645    0.0000 C   0  0  0  0  0  0  0  0  0  0  0  0
    3.0536   -9.0776    0.0000 O   0  0  0  0  0  0  0  0  0  0  0  0
    1.7411   -7.4250    0.0000 C   0  0  0  0  0  0  0  0  0  0  0  0
    3.3507   -6.3450    0.0000 S   0  0  0  0  0  0  0  0  0  0  0  0
    2.5661   -7.4250    0.0000 N   0  0  0  0  0  0  0  0  0  0  0  0
   -0.4023   -5.3625    0.0000 N   0  0  0  0  0  0  0  0  0  0  0  0
    2.5661   -5.7750    0.0000 H   0  0  0  0  0  0  0  0  0  0  0  0
    1.1577   -8.0083    0.0000 O   0  0  0  0  0  0  0  0  0  0  0  0
    0.3505  -11.5581    0.0000 N   0  3  0  0  0  0  0  0  0  0  0  0
    2.4796  -11.1375    0.0000 N   0  3  0  0  0  0  0  0  0  0  0  0
   -1.1216  -11.5581    0.0000 C   0  0  0  0  0  0  0  0  0  0  0  0
    3.9253  -11.1375    0.0000 C   0  0  0  0  0  0  0  0  0  0  0  0
   -0.3855  -11.1375    0.0000 C   0  0  0  0  0  0  0  0  0  0  0  0
    3.2156  -11.5581    0.0000 C   0  0  0  0  0  0  0  0  0  0  0  0
    1.0602  -11.1375    0.0000 C   0  0  0  0  0  0  0  0  0  0  0  0
    1.7699  -11.5581    0.0000 C   0  0  0  0  0  0  0  0  0  0  0  0
   -1.1216  -12.3992    0.0000 C   0  0  0  0  0  0  0  0  0  0  0  0
    4.6351  -11.5581    0.0000 C   0  0  0  0  0  0  0  0  0  0  0  0
   -1.8313  -11.1375    0.0000 C   0  0  0  0  0  0  0  0  0  0  0  0
    3.9253  -10.2964    0.0000 C   0  0  0  0  0  0  0  0  0  0  0  0
   -2.5410  -11.5581    0.0000 C   0  0  0  0  0  0  0  0  0  0  0  0
   -1.8313  -12.7935    0.0000 C   0  0  0  0  0  0  0  0  0  0  0  0
    4.6351   -9.9021    0.0000 C   0  0  0  0  0  0  0  0  0  0  0  0
    5.3448  -11.1375    0.0000 C   0  0  0  0  0  0  0  0  0  0  0  0
    5.3448  -10.2964    0.0000 C   0  0  0  0  0  0  0  0  0  0  0  0
   -2.5410  -12.3992    0.0000 C   0  0  0  0  0  0  0  0  0  0  0  0
    0.3505  -12.3831    0.0000 H   0  0  0  0  0  0  0  0  0  0  0  0
    2.4796  -10.3125    0.0000 H   0  0  0  0  0  0  0  0  0  0  0  0
    2.4796  -11.9625    0.0000 H   0  0  0  0  0  0  0  0  0  0  0  0
    0.3505  -10.7331    0.0000 H   0  0  0  0  0  0  0  0  0  0  0  0
  1  2  1  0  0  0  0
  1  6  2  0  0  0  0
  2  3  2  0  0  0  0
  3  4  1  0  0  0  0
  4  5  2  0  0  0  0
  5  6  1  0  0  0  0
  6 11  1  0  0  0  0
 11 18  1  0  0  0  0
 18 12  1  0  0  0  0
  7 12  1  1  0  0  0
  7 20  1  0  0  0  0
  7 13  1  0  0  0  0
 22 20  1  0  0  0  0
 22 14  1  0  0  0  0
 13 22  1  0  0  0  0
 21 13  1  0  0  0  0
 21  9  1  0  0  0  0
 14  9  1  0  0  0  0
  9  8  1  0  0  0  0
  9 10  1  0  0  0  0
 11 23  1  1  0  0  0
 14 16  1  6  0  0  0
 16 15  1  0  0  0  0
 16 17  2  0  0  0  0
 18 19  2  0  0  0  0
 13 24  1  6  0  0  0
 20 25  2  0  0  0  0
 26 27  2  0  0  0  0
 38 26  1  0  0  0  0
 26 39  1  0  0  0  0
 28 29  1  0  0  0  0
 28 33  2  0  0  0  0
 29 30  2  0  0  0  0
 30 31  1  0  0  0  0
 31 32  2  0  0  0  0
 32 33  1  0  0  0  0
 33 38  1  0  0  0  0
 34 39  1  1  0  0  0
 34 45  1  0  0  0  0
 34 40  1  0  0  0  0
 47 45  1  0  0  0  0
 47 41  1  0  0  0  0
 40 47  1  0  0  0  0
 46 40  1  0  0  0  0
 46 36  1  0  0  0  0
 41 36  1  0  0  0  0
 36 35  1  0  0  0  0
 36 37  1  0  0  0  0
 38 48  1  1  0  0  0
 41 43  1  6  0  0  0
 43 42  1  0  0  0  0
 43 44  2  0  0  0  0
 40 49  1  6  0  0  0
 45 50  2  0  0  0  0
 55 51  1  0  0  0  0
 57 51  1  0  0  0  0
 58 52  1  0  0  0  0
 56 52  1  0  0  0  0
 55 53  1  0  0  0  0
 59 53  1  0  0  0  0
 61 53  2  0  0  0  0
 56 54  1  0  0  0  0
 60 54  2  0  0  0  0
 62 54  1  0  0  0  0
 58 57  1  0  0  0  0
 64 59  2  0  0  0  0
 66 60  1  0  0  0  0
 63 61  1  0  0  0  0
 65 62  2  0  0  0  0
 68 63  2  0  0  0  0
 68 64  1  0  0  0  0
 67 65  1  0  0  0  0
 67 66  2  0  0  0  0
 51 69  1  0  0  0  0
 52 70  1  0  0  0  0
 52 71  1  0  0  0  0
 51 72  1  0  0  0  0
M  CHG  4  15  -1  42  -1  51   1  52   1
M  END

>  <ACTIVITY>
5.00
$$$$
34535

  Mrv0541 05041708492D          

 26 27  0  0  0  0            999 V2000
   -4.3974    1.2375    0.0000 C   0  0  0  0  0  0  0  0  0  0  0  0
   -5.1119    0.8250    0.0000 C   0  0  0  0  0  0  0  0  0  0  0  0
   -5.1119    0.0000    0.0000 C   0  0  0  0  0  0  0  0  0  0  0  0
   -4.3974   -0.4125    0.0000 C   0  0  0  0  0  0  0  0  0  0  0  0
   -3.6829    0.0000    0.0000 C   0  0  0  0  0  0  0  0  0  0  0  0
   -3.6829    0.8250    0.0000 C   0  0  0  0  0  0  0  0  0  0  0  0
   -0.8250    0.8250    0.0000 C   0  0  1  0  0  0  0  0  0  0  0  0
    1.9883    0.8175    0.0000 C   0  0  0  0  0  0  0  0  0  0  0  0
    1.2695    0.4125    0.0000 C   0  0  0  0  0  0  0  0  0  0  0  0
    1.9883    0.0075    0.0000 C   0  0  0  0  0  0  0  0  0  0  0  0
   -2.9684    1.2375    0.0000 C   0  0  2  0  0  0  0  0  0  0  0  0
   -1.5395    1.2375    0.0000 N   0  0  0  0  0  0  0  0  0  0  0  0
    0.0000    0.8250    0.0000 C   0  0  1  0  0  0  0  0  0  0  0  0
    0.7846   -0.2549    0.0000 C   0  0  2  0  0  0  0  0  0  0  0  0
    1.8465   -1.2111    0.0000 O   0  5  0  0  0  0  0  0  0  0  0  0
    1.0395   -1.0395    0.0000 C   0  0  0  0  0  0  0  0  0  0  0  0
    0.4875   -1.6526    0.0000 O   0  0  0  0  0  0  0  0  0  0  0  0
   -2.2540    0.8250    0.0000 C   0  0  0  0  0  0  0  0  0  0  0  0
   -2.2540    0.0000    0.0000 O   0  0  0  0  0  0  0  0  0  0  0  0
   -0.8250    0.0000    0.0000 C   0  0  0  0  0  0  0  0  0  0  0  0
    0.7846    1.0800    0.0000 S   0  0  0  0  0  0  0  0  0  0  0  0
    0.0000    0.0000    0.0000 N   0  0  0  0  0  0  0  0  0  0  0  0
   -2.9684    2.0625    0.0000 N   0  0  0  0  0  0  0  0  0  0  0  0
    0.0000    1.6500    0.0000 H   0  0  0  0  0  0  0  0  0  0  0  0
   -1.4084   -0.5833    0.0000 O   0  0  0  0  0  0  0  0  0  0  0  0
    0.8250    2.5000    0.0000 Na  0  3  0  0  0  0  0  0  0  0  0  0
  1  2  1  0  0  0  0
  1  6  2  0  0  0  0
  2  3  2  0  0  0  0
  3  4  1  0  0  0  0
  4  5  2  0  0  0  0
  5  6  1  0  0  0  0
  6 11  1  0  0  0  0
 11 18  1  0  0  0  0
 18 12  1  0  0  0  0
  7 12  1  1  0  0  0
  7 20  1  0  0  0  0
  7 13  1  0  0  0  0
 22 20  1  0  0  0  0
 22 14  1  0  0  0  0
 13 22  1  0  0  0  0
 21 13  1  0  0  0  0
 21  9  1  0  0  0  0
 14  9  1  0  0  0  0
  9  8  1  0  0  0  0
  9 10  1  0  0  0  0
 11 23  1  1  0  0  0
 14 16  1  6  0  0  0
 16 15  1  0  0  0  0
 16 17  2  0  0  0  0
 18 19  2  0  0  0  0
 13 24  1  6  0  0  0
 20 25  2  0  0  0  0
M  CHG  2  15  -1  26   1
M  END

>  <ACTIVITY>
5.00
$$$$
50658

  Mrv0541 05041708492D          

 25 27  0  0  0  0            999 V2000
   -1.8313   -2.0625    0.0000 C   0  0  0  0  0  0  0  0  0  0  0  0
   -2.5458   -2.4750    0.0000 C   0  0  0  0  0  0  0  0  0  0  0  0
   -2.5458   -3.3000    0.0000 C   0  0  0  0  0  0  0  0  0  0  0  0
   -1.8313   -3.7125    0.0000 C   0  0  0  0  0  0  0  0  0  0  0  0
   -1.1168   -3.3000    0.0000 C   0  0  0  0  0  0  0  0  0  0  0  0
   -1.1168   -2.4750    0.0000 C   0  0  0  0  0  0  0  0  0  0  0  0
    1.7411   -2.4750    0.0000 C   0  0  1  0  0  0  0  0  0  0  0  0
    4.5544   -2.4825    0.0000 C   0  0  0  0  0  0  0  0  0  0  0  0
    3.8356   -2.8875    0.0000 C   0  0  0  0  0  0  0  0  0  0  0  0
    4.5544   -3.2925    0.0000 C   0  0  0  0  0  0  0  0  0  0  0  0
   -0.4023   -2.0625    0.0000 C   0  0  2  0  0  0  0  0  0  0  0  0
    1.0266   -2.0625    0.0000 N   0  0  0  0  0  0  0  0  0  0  0  0
    2.5661   -2.4750    0.0000 C   0  0  1  0  0  0  0  0  0  0  0  0
    3.3507   -3.5549    0.0000 C   0  0  2  0  0  0  0  0  0  0  0  0
    4.4126   -4.5111    0.0000 O   0  5  0  0  0  0  0  0  0  0  0  0
    3.6056   -4.3395    0.0000 C   0  0  0  0  0  0  0  0  0  0  0  0
    3.0536   -4.9526    0.0000 O   0  0  0  0  0  0  0  0  0  0  0  0
    0.3121   -2.4750    0.0000 C   0  0  0  0  0  0  0  0  0  0  0  0
    0.3121   -3.3000    0.0000 O   0  0  0  0  0  0  0  0  0  0  0  0
    1.7411   -3.3000    0.0000 C   0  0  0  0  0  0  0  0  0  0  0  0
    3.3507   -2.2200    0.0000 S   0  0  0  0  0  0  0  0  0  0  0  0
    2.5661   -3.3000    0.0000 N   0  0  0  0  0  0  0  0  0  0  0  0
   -0.4023   -1.2375    0.0000 N   0  0  0  0  0  0  0  0  0  0  0  0
    2.5661   -1.6500    0.0000 H   0  0  0  0  0  0  0  0  0  0  0  0
    1.1577   -3.8833    0.0000 O   0  0  0  0  0  0  0  0  0  0  0  0
  1  2  1  0  0  0  0
  1  6  2  0  0  0  0
  2  3  2  0  0  0  0
  3  4  1  0  0  0  0
  4  5  2  0  0  0  0
  5  6  1  0  0  0  0
  6 11  1  0  0  0  0
 11 18  1  0  0  0  0
 18 12  1  0  0  0  0
  7 12  1  1  0  0  0
  7 20  1  0  0  0  0
  7 13  1  0  0  0  0
 22 20  1  0  0  0  0
 22 14  1  0  0  0  0
 13 22  1  0  0  0  0
 21 13  1  0  0  0  0
 21  9  1  0  0  0  0
 14  9  1  0  0  0  0
  9  8  1  0  0  0  0
  9 10  1  0  0  0  0
 11 23  1  1  0  0  0
 14 16  1  6  0  0  0
 16 15  1  0  0  0  0
 16 17  2  0  0  0  0
 18 19  2  0  0  0  0
 13 24  1  6  0  0  0
 20 25  2  0  0  0  0
M  CHG  1  15  -1
M  END

>  <ACTIVITY>
5.00
$$$$
31209

  Mrv0541 05041708492D          

 34 33  0  0  0  0            999 V2000
   -4.3974    1.2375    0.0000 C   0  0  0  0  0  0  0  0  0  0  0  0
   -5.1119    0.8250    0.0000 C   0  0  0  0  0  0  0  0  0  0  0  0
   -5.1119    0.0000    0.0000 C   0  0  0  0  0  0  0  0  0  0  0  0
   -4.3974   -0.4125    0.0000 C   0  0  0  0  0  0  0  0  0  0  0  0
   -3.6829    0.0000    0.0000 C   0  0  0  0  0  0  0  0  0  0  0  0
   -3.6829    0.8250    0.0000 C   0  0  0  0  0  0  0  0  0  0  0  0
   -0.8250    0.8250    0.0000 C   0  0  1  0  0  0  0  0  0  0  0  0
    1.9883    0.8175    0.0000 C   0  0  0  0  0  0  0  0  0  0  0  0
    1.2695    0.4125    0.0000 C   0  0  0  0  0  0  0  0  0  0  0  0
    1.9883    0.0075    0.0000 C   0  0  0  0  0  0  0  0  0  0  0  0
   -2.9684    1.2375    0.0000 C   0  0  2  0  0  0  0  0  0  0  0  0
   -1.5395    1.2375    0.0000 N   0  0  0  0  0  0  0  0  0  0  0  0
    0.0000    0.8250    0.0000 C   0  0  1  0  0  0  0  0  0  0  0  0
    0.7846   -0.2549    0.0000 C   0  0  2  0  0  0  0  0  0  0  0  0
    1.8465   -1.2111    0.0000 O   0  0  0  0  0  0  0  0  0  0  0  0
    1.0395   -1.0395    0.0000 C   0  0  0  0  0  0  0  0  0  0  0  0
    0.4875   -1.6526    0.0000 O   0  0  0  0  0  0  0  0  0  0  0  0
   -2.2540    0.8250    0.0000 C   0  0  0  0  0  0  0  0  0  0  0  0
   -2.2540    0.0000    0.0000 O   0  0  0  0  0  0  0  0  0  0  0  0
   -0.8250    0.0000    0.0000 C   0  0  0  0  0  0  0  0  0  0  0  0
    0.7846    1.0800    0.0000 S   0  0  0  0  0  0  0  0  0  0  0  0
    0.0000    0.0000    0.0000 N   0  0  0  0  0  0  0  0  0  0  0  0
   -2.9684    2.0625    0.0000 N   0  0  0  0  0  0  0  0  0  0  0  0
    0.0000    1.6500    0.0000 H   0  0  0  0  0  0  0  0  0  0  0  0
   -1.4084   -0.5833    0.0000 O   0  0  0  0  0  0  0  0  0  0  0  0
   -1.4591   -2.9088    0.0000 O   0  0  0  0  0  0  0  0  0  0  0  0
   -3.1091   -2.9088    0.0000 O   0  0  0  0  0  0  0  0  0  0  0  0
    0.1909   -2.9088    0.0000 O   0  0  0  0  0  0  0  0  0  0  0  0
   -0.5236   -3.3213    0.0000 H   0  0  0  0  0  0  0  0  0  0  0  0
    0.9054   -3.3213    0.0000 H   0  0  0  0  0  0  0  0  0  0  0  0
   -0.7446   -2.4963    0.0000 H   0  0  0  0  0  0  0  0  0  0  0  0
   -2.1736   -2.4963    0.0000 H   0  0  0  0  0  0  0  0  0  0  0  0
   -2.3946   -3.3213    0.0000 H   0  0  0  0  0  0  0  0  0  0  0  0
   -3.8236   -3.3213    0.0000 H   0  0  0  0  0  0  0  0  0  0  0  0
  1  2  1  0  0  0  0
  1  6  2  0  0  0  0
  2  3  2  0  0  0  0
  3  4  1  0  0  0  0
  4  5  2  0  0  0  0
  5  6  1  0  0  0  0
  6 11  1  0  0  0  0
 11 18  1  0  0  0  0
 18 12  1  0  0  0  0
  7 12  1  1  0  0  0
  7 20  1  0  0  0  0
  7 13  1  0  0  0  0
 22 20  1  0  0  0  0
 22 14  1  0  0  0  0
 13 22  1  0  0  0  0
 21 13  1  0  0  0  0
 21  9  1  0  0  0  0
 14  9  1  0  0  0  0
  9  8  1  0  0  0  0
  9 10  1  0  0  0  0
 11 23  1  1  0  0  0
 14 16  1  6  0  0  0
 16 15  1  0  0  0  0
 16 17  2  0  0  0  0
 18 19  2  0  0  0  0
 13 24  1  6  0  0  0
 20 25  2  0  0  0  0
 28 29  1  0  0  0  0
 28 30  1  0  0  0  0
 26 31  1  0  0  0  0
 26 32  1  0  0  0  0
 27 33  1  0  0  0  0
 27 34  1  0  0  0  0
M  END

>  <ACTIVITY>
5.00
$$$$
51342

  Mrv0541 05041708492D          

 26 27  0  0  0  0            999 V2000
   -4.3974    1.2375    0.0000 C   0  0  0  0  0  0  0  0  0  0  0  0
   -5.1119    0.8250    0.0000 C   0  0  0  0  0  0  0  0  0  0  0  0
   -5.1119    0.0000    0.0000 C   0  0  0  0  0  0  0  0  0  0  0  0
   -4.3974   -0.4125    0.0000 C   0  0  0  0  0  0  0  0  0  0  0  0
   -3.6829    0.0000    0.0000 C   0  0  0  0  0  0  0  0  0  0  0  0
   -3.6829    0.8250    0.0000 C   0  0  0  0  0  0  0  0  0  0  0  0
   -0.8250    0.8250    0.0000 C   0  0  1  0  0  0  0  0  0  0  0  0
    1.9883    0.8175    0.0000 C   0  0  0  0  0  0  0  0  0  0  0  0
    1.2695    0.4125    0.0000 C   0  0  0  0  0  0  0  0  0  0  0  0
    1.9883    0.0075    0.0000 C   0  0  0  0  0  0  0  0  0  0  0  0
   -2.9684    1.2375    0.0000 C   0  0  2  0  0  0  0  0  0  0  0  0
   -1.5395    1.2375    0.0000 N   0  0  0  0  0  0  0  0  0  0  0  0
    0.0000    0.8250    0.0000 C   0  0  1  0  0  0  0  0  0  0  0  0
    0.7846   -0.2549    0.0000 C   0  0  2  0  0  0  0  0  0  0  0  0
    1.8465   -1.2111    0.0000 O   0  5  0  0  0  0  0  0  0  0  0  0
    1.0395   -1.0395    0.0000 C   0  0  0  0  0  0  0  0  0  0  0  0
    0.4875   -1.6526    0.0000 O   0  0  0  0  0  0  0  0  0  0  0  0
   -2.2540    0.8250    0.0000 C   0  0  0  0  0  0  0  0  0  0  0  0
   -2.2540    0.0000    0.0000 O   0  0  0  0  0  0  0  0  0  0  0  0
   -0.8250    0.0000    0.0000 C   0  0  0  0  0  0  0  0  0  0  0  0
    0.7846    1.0800    0.0000 S   0  0  0  0  0  0  0  0  0  0  0  0
    0.0000    0.0000    0.0000 N   0  0  0  0  0  0  0  0  0  0  0  0
   -2.9684    2.0625    0.0000 N   0  0  0  0  0  0  0  0  0  0  0  0
    0.0000    1.6500    0.0000 H   0  0  0  0  0  0  0  0  0  0  0  0
   -1.4084   -0.5833    0.0000 O   0  0  0  0  0  0  0  0  0  0  0  0
    0.8250    2.5000    0.0000 K   0  3  0  0  0  0  0  0  0  0  0  0
  1  2  1  0  0  0  0
  1  6  2  0  0  0  0
  2  3  2  0  0  0  0
  3  4  1  0  0  0  0
  4  5  2  0  0  0  0
  5  6  1  0  0  0  0
  6 11  1  0  0  0  0
 11 18  1  0  0  0  0
 18 12  1  0  0  0  0
  7 12  1  1  0  0  0
  7 20  1  0  0  0  0
  7 13  1  0  0  0  0
 22 20  1  0  0  0  0
 22 14  1  0  0  0  0
 13 22  1  0  0  0  0
 21 13  1  0  0  0  0
 21  9  1  0  0  0  0
 14  9  1  0  0  0  0
  9  8  1  0  0  0  0
  9 10  1  0  0  0  0
 11 23  1  1  0  0  0
 14 16  1  6  0  0  0
 16 15  1  0  0  0  0
 16 17  2  0  0  0  0
 18 19  2  0  0  0  0
 13 24  1  6  0  0  0
 20 25  2  0  0  0  0
M  CHG  2  15  -1  26   1
M  END

>  <ACTIVITY>
5.00
$$$$
53713

  Mrv0541 05041708492D          

 25 27  0  0  1  0            999 V2000
    0.6673    0.5269    0.0000 C   0  0  2  0  0  0  0  0  0  0  0  0
    0.6673   -0.2981    0.0000 C   0  0  0  0  0  0  0  0  0  0  0  0
    1.4923   -0.2981    0.0000 N   0  0  0  0  0  0  0  0  0  0  0  0
    1.4923    0.5269    0.0000 C   0  0  2  0  0  0  0  0  0  0  0  0
    2.2769   -0.5531    0.0000 C   0  0  2  0  0  0  0  0  0  0  0  0
    2.7619    0.1144    0.0000 C   0  0  0  0  0  0  0  0  0  0  0  0
    2.2769    0.7818    0.0000 S   0  0  0  0  0  0  0  0  0  0  0  0
    3.4806   -0.2906    0.0000 C   0  0  0  0  0  0  0  0  0  0  0  0
    3.4806    0.5194    0.0000 C   0  0  0  0  0  0  0  0  0  0  0  0
    2.5319   -1.3377    0.0000 C   0  0  0  0  0  0  0  0  0  0  0  0
    3.3388   -1.5092    0.0000 *   0  0  0  0  0  0  0  0  0  0  0  0
    1.9798   -1.9508    0.0000 O   0  0  0  0  0  0  0  0  0  0  0  0
   -0.0472    0.9394    0.0000 N   0  0  0  0  0  0  0  0  0  0  0  0
   -0.7616    0.5269    0.0000 C   0  0  0  0  0  0  0  0  0  0  0  0
   -0.7616   -0.2981    0.0000 O   0  0  0  0  0  0  0  0  0  0  0  0
   -1.4761    0.9394    0.0000 C   0  0  1  0  0  0  0  0  0  0  0  0
   -2.1906    0.5269    0.0000 C   0  0  0  0  0  0  0  0  0  0  0  0
   -1.4761    1.7644    0.0000 N   0  0  0  0  0  0  0  0  0  0  0  0
   -2.9050    0.9394    0.0000 C   0  0  0  0  0  0  0  0  0  0  0  0
   -3.6195    0.5269    0.0000 C   0  0  0  0  0  0  0  0  0  0  0  0
   -3.6195   -0.2981    0.0000 C   0  0  0  0  0  0  0  0  0  0  0  0
   -2.9050   -0.7106    0.0000 C   0  0  0  0  0  0  0  0  0  0  0  0
   -2.1906   -0.2981    0.0000 C   0  0  0  0  0  0  0  0  0  0  0  0
    0.0840   -0.8815    0.0000 O   0  0  0  0  0  0  0  0  0  0  0  0
    1.4923    1.3519    0.0000 H   0  0  0  0  0  0  0  0  0  0  0  0
  1  2  1  0  0  0  0
  2  3  1  0  0  0  0
  4  3  1  0  0  0  0
  4  1  1  0  0  0  0
  3  5  1  0  0  0  0
  5  6  1  0  0  0  0
  6  7  1  0  0  0  0
  4  7  1  0  0  0  0
  6  8  1  0  0  0  0
  6  9  1  0  0  0  0
  5 10  1  6  0  0  0
 10 11  1  0  0  0  0
 10 12  2  0  0  0  0
  1 13  1  1  0  0  0
 13 14  1  0  0  0  0
 14 15  2  0  0  0  0
 14 16  1  0  0  0  0
 16 17  1  0  0  0  0
 16 18  1  1  0  0  0
 17 19  2  0  0  0  0
 19 20  1  0  0  0  0
 20 21  2  0  0  0  0
 21 22  1  0  0  0  0
 22 23  2  0  0  0  0
 17 23  1  0  0  0  0
  2 24  2  0  0  0  0
  4 25  1  6  0  0  0
M  END

>  <ACTIVITY>
5.00
$$$$
55473

  Mrv0541 05041708492D          

 30 31  0  0  1  0            999 V2000
   19.8337  -15.6773    0.0000 N   0  0  0  0  0  0  0  0  0  0  0  0
   20.6183  -14.5974    0.0000 S   0  0  0  0  0  0  0  0  0  0  0  0
   21.8177  -15.6773    0.0000 C   0  0  0  0  0  0  0  0  0  0  0  0
   21.1032  -15.2648    0.0000 C   0  0  0  0  0  0  0  0  0  0  0  0
   21.8177  -14.8523    0.0000 C   0  0  0  0  0  0  0  0  0  0  0  0
   20.6183  -15.9323    0.0000 C   0  0  2  0  0  0  0  0  0  0  0  0
   21.6802  -16.8884    0.0000 O   0  0  0  0  0  0  0  0  0  0  0  0
   20.8732  -16.7169    0.0000 C   0  0  0  0  0  0  0  0  0  0  0  0
   20.3212  -17.3300    0.0000 O   0  0  0  0  0  0  0  0  0  0  0  0
   19.1193  -13.6147    0.0000 N   0  0  0  0  0  0  0  0  0  0  0  0
   18.4048  -13.2022    0.0000 C   0  0  0  0  0  0  0  0  0  0  0  0
   17.6903  -13.6147    0.0000 O   0  0  0  0  0  0  0  0  0  0  0  0
   18.4048  -12.3773    0.0000 C   0  0  1  0  0  0  0  0  0  0  0  0
   17.6904  -11.1397    0.0000 C   0  0  0  0  0  0  0  0  0  0  0  0
   16.9759  -10.7272    0.0000 C   0  0  0  0  0  0  0  0  0  0  0  0
   16.2614  -11.1396    0.0000 C   0  0  0  0  0  0  0  0  0  0  0  0
   16.2614  -11.9647    0.0000 C   0  0  0  0  0  0  0  0  0  0  0  0
   16.9759  -12.3772    0.0000 C   0  0  0  0  0  0  0  0  0  0  0  0
   17.6904  -11.9647    0.0000 C   0  0  0  0  0  0  0  0  0  0  0  0
   19.8337  -14.8523    0.0000 C   0  0  2  0  0  0  0  0  0  0  0  0
   19.8337  -14.0273    0.0000 H   0  0  0  0  0  0  0  0  0  0  0  0
   19.1193  -14.4398    0.0000 C   0  0  1  0  0  0  0  0  0  0  0  0
   18.4048  -14.8523    0.0000 C   0  0  0  0  0  0  0  0  0  0  0  0
   18.4048  -15.6773    0.0000 O   0  0  0  0  0  0  0  0  0  0  0  0
   17.6903  -14.4398    0.0000 N   0  0  0  0  0  0  0  0  0  0  0  0
   19.1193  -11.9649    0.0000 N   0  0  0  0  0  0  0  0  0  0  0  0
   16.9759  -14.8522    0.0000 C   0  0  0  0  0  0  0  0  0  0  0  0
   16.2614  -14.4397    0.0000 C   0  0  0  0  0  0  0  0  0  0  0  0
   15.5469  -14.8522    0.0000 C   0  0  0  0  0  0  0  0  0  0  0  0
   14.8325  -14.4397    0.0000 C   0  0  0  0  0  0  0  0  0  0  0  0
  1  6  1  0  0  0  0
 20  1  1  0  0  0  0
  2 20  1  0  0  0  0
  2  4  1  0  0  0  0
  6  4  1  0  0  0  0
  4  3  1  0  0  0  0
  4  5  1  0  0  0  0
  6  8  1  6  0  0  0
  8  7  1  0  0  0  0
  8  9  2  0  0  0  0
 22 10  1  1  0  0  0
 10 11  1  0  0  0  0
 11 13  1  0  0  0  0
 11 12  2  0  0  0  0
 13 19  1  0  0  0  0
 14 15  1  0  0  0  0
 14 19  2  0  0  0  0
 15 16  2  0  0  0  0
 16 17  1  0  0  0  0
 17 18  2  0  0  0  0
 18 19  1  0  0  0  0
 20 21  1  6  0  0  0
 20 22  1  0  0  0  0
 22 23  1  0  0  0  0
 23 24  2  0  0  0  0
 23 25  1  0  0  0  0
 13 26  1  1  0  0  0
 25 27  1  0  0  0  0
 27 28  1  0  0  0  0
 28 29  1  0  0  0  0
 29 30  1  0  0  0  0
M  END

>  <ACTIVITY>
5.00
$$$$
63221

  Mrv0541 05041708492D          

 33 36  0  0  1  0            999 V2000
    7.9794   -5.0463    0.0000 C   0  0  0  0  0  0  0  0  0  0  0  0
    7.2649   -5.4588    0.0000 C   0  0  0  0  0  0  0  0  0  0  0  0
    7.2649   -6.2838    0.0000 C   0  0  0  0  0  0  0  0  0  0  0  0
    7.9794   -6.6963    0.0000 C   0  0  0  0  0  0  0  0  0  0  0  0
    8.6939   -6.2838    0.0000 C   0  0  0  0  0  0  0  0  0  0  0  0
    8.6939   -5.4588    0.0000 C   0  0  0  0  0  0  0  0  0  0  0  0
   11.5518   -5.4588    0.0000 C   0  0  1  0  0  0  0  0  0  0  0  0
   14.3650   -5.4663    0.0000 C   0  0  0  0  0  0  0  0  0  0  0  0
   13.6463   -5.8713    0.0000 C   0  0  0  0  0  0  0  0  0  0  0  0
   14.3650   -6.2763    0.0000 C   0  0  0  0  0  0  0  0  0  0  0  0
    9.4083   -5.0463    0.0000 C   0  0  2  0  0  0  0  0  0  0  0  0
   10.8373   -5.0463    0.0000 N   0  0  0  0  0  0  0  0  0  0  0  0
   12.3768   -5.4588    0.0000 C   0  0  1  0  0  0  0  0  0  0  0  0
   13.1614   -6.5388    0.0000 C   0  0  2  0  0  0  0  0  0  0  0  0
   14.2232   -7.4950    0.0000 O   0  0  0  0  0  0  0  0  0  0  0  0
   13.4163   -7.3233    0.0000 C   0  0  0  0  0  0  0  0  0  0  0  0
   12.8643   -7.9364    0.0000 O   0  0  0  0  0  0  0  0  0  0  0  0
   10.1227   -5.4588    0.0000 C   0  0  0  0  0  0  0  0  0  0  0  0
   10.1227   -6.2838    0.0000 O   0  0  0  0  0  0  0  0  0  0  0  0
   11.5518   -6.2838    0.0000 C   0  0  0  0  0  0  0  0  0  0  0  0
   13.1614   -5.2038    0.0000 S   0  0  0  0  0  0  0  0  0  0  0  0
   12.3768   -6.2838    0.0000 N   0  0  0  0  0  0  0  0  0  0  0  0
    9.4083   -4.2213    0.0000 N   0  0  0  0  0  0  0  0  0  0  0  0
   12.3768   -4.6338    0.0000 H   0  0  0  0  0  0  0  0  0  0  0  0
   10.9684   -6.8672    0.0000 O   0  0  0  0  0  0  0  0  0  0  0  0
    8.6939   -2.9838    0.0000 C   0  0  0  0  0  0  0  0  0  0  0  0
    7.9794   -2.5713    0.0000 C   0  0  0  0  0  0  0  0  0  0  0  0
    7.9794   -1.7463    0.0000 C   0  0  0  0  0  0  0  0  0  0  0  0
    8.6939   -1.3338    0.0000 C   0  0  0  0  0  0  0  0  0  0  0  0
    9.4084   -1.7463    0.0000 C   0  0  0  0  0  0  0  0  0  0  0  0
    9.4084   -2.5713    0.0000 C   0  0  0  0  0  0  0  0  0  0  0  0
    8.6939   -3.8088    0.0000 C   0  0  0  0  0  0  0  0  0  0  0  0
    7.9794   -4.2213    0.0000 O   0  0  0  0  0  0  0  0  0  0  0  0
  1  2  1  0  0  0  0
  1  6  2  0  0  0  0
  2  3  2  0  0  0  0
  3  4  1  0  0  0  0
  4  5  2  0  0  0  0
  5  6  1  0  0  0  0
  6 11  1  0  0  0  0
 11 18  1  0  0  0  0
 18 12  1  0  0  0  0
  7 12  1  1  0  0  0
  7 20  1  0  0  0  0
  7 13  1  0  0  0  0
 22 20  1  0  0  0  0
 22 14  1  0  0  0  0
 13 22  1  0  0  0  0
 21 13  1  0  0  0  0
 21  9  1  0  0  0  0
 14  9  1  0  0  0  0
  9  8  1  0  0  0  0
  9 10  1  0  0  0  0
 11 23  1  1  0  0  0
 14 16  1  6  0  0  0
 16 15  1  0  0  0  0
 16 17  2  0  0  0  0
 18 19  2  0  0  0  0
 13 24  1  6  0  0  0
 20 25  2  0  0  0  0
 27 26  1  0  0  0  0
 31 26  2  0  0  0  0
 32 26  1  0  0  0  0
 28 27  2  0  0  0  0
 29 28  1  0  0  0  0
 30 29  2  0  0  0  0
 31 30  1  0  0  0  0
 33 32  2  0  0  0  0
 23 32  1  0  0  0  0
M  END

>  <ACTIVITY>
5.00
$$$$
2968

  Mrv0541 05041708492D          

 34 36  0  0  0  0            999 V2000
    0.0000    0.8250    0.0000 C   0  0  0  0  0  0  0  0  0  0  0  0
    0.7145    0.4125    0.0000 C   0  0  0  0  0  0  0  0  0  0  0  0
    0.7145   -0.4125    0.0000 C   0  0  0  0  0  0  0  0  0  0  0  0
    0.0000   -0.8250    0.0000 C   0  0  0  0  0  0  0  0  0  0  0  0
   -0.7145   -0.4125    0.0000 C   0  0  0  0  0  0  0  0  0  0  0  0
   -0.7145    0.4125    0.0000 C   0  0  0  0  0  0  0  0  0  0  0  0
    3.5724    0.4125    0.0000 C   0  0  1  0  0  0  0  0  0  0  0  0
    3.5724   -0.4125    0.0000 C   0  0  0  0  0  0  0  0  0  0  0  0
    2.8579    0.8250    0.0000 N   0  0  0  0  0  0  0  0  0  0  0  0
    2.1434    0.4125    0.0000 C   0  0  0  0  0  0  0  0  0  0  0  0
    2.1434   -0.4125    0.0000 O   0  0  0  0  0  0  0  0  0  0  0  0
    1.4289    0.8250    0.0000 C   0  0  2  0  0  0  0  0  0  0  0  0
    1.4289    1.6500    0.0000 N   0  0  0  0  0  0  0  0  0  0  0  0
    2.9890   -0.9959    0.0000 O   0  0  0  0  0  0  0  0  0  0  0  0
    4.3974    1.2375    0.0000 H   0  0  0  0  0  0  0  0  0  0  0  0
    4.3974   -0.4125    0.0000 N   0  0  0  0  0  0  0  0  0  0  0  0
    4.3974    0.4125    0.0000 C   0  0  2  0  0  0  0  0  0  0  0  0
    5.6669    0.0000    0.0000 C   0  0  0  0  0  0  0  0  0  0  0  0
    5.1820    0.6674    0.0000 S   0  0  0  0  0  0  0  0  0  0  0  0
    6.3857   -0.4050    0.0000 C   0  0  0  0  0  0  0  0  0  0  0  0
    6.3857    0.4050    0.0000 C   0  0  0  0  0  0  0  0  0  0  0  0
    5.1820   -0.6674    0.0000 C   0  0  2  0  0  0  0  0  0  0  0  0
    5.1820   -1.4924    0.0000 C   0  0  0  0  0  0  0  0  0  0  0  0
    4.4676   -1.9049    0.0000 O   0  0  0  0  0  0  0  0  0  0  0  0
    5.8965   -1.9049    0.0000 O   0  0  0  0  0  0  0  0  0  0  0  0
    5.8965   -2.7299    0.0000 C   0  0  0  0  0  0  0  0  0  0  0  0
    5.1820   -3.1424    0.0000 C   0  0  0  0  0  0  0  0  0  0  0  0
    6.6110   -3.1424    0.0000 O   0  0  0  0  0  0  0  0  0  0  0  0
    7.3254   -2.7299    0.0000 C   0  0  0  0  0  0  0  0  0  0  0  0
    8.0399   -3.1424    0.0000 O   0  0  0  0  0  0  0  0  0  0  0  0
    7.3254   -1.9049    0.0000 O   0  0  0  0  0  0  0  0  0  0  0  0
    8.7544   -2.7299    0.0000 C   0  0  0  0  0  0  0  0  0  0  0  0
    9.4688   -3.1424    0.0000 C   0  0  0  0  0  0  0  0  0  0  0  0
    5.8965   -1.0799    0.0000 H   0  0  0  0  0  0  0  0  0  0  0  0
  4  5  1  0  0  0  0
 12  2  1  0  0  0  0
  3  4  2  0  0  0  0
  2  3  1  0  0  0  0
  5  6  2  0  0  0  0
  6  1  1  0  0  0  0
  2  1  2  0  0  0  0
  7  8  1  0  0  0  0
  8 16  1  0  0  0  0
  7 17  1  0  0  0  0
  7  9  1  1  0  0  0
  9 10  1  0  0  0  0
 10 11  2  0  0  0  0
 10 12  1  0  0  0  0
 12 13  1  1  0  0  0
  8 14  2  0  0  0  0
 17 15  1  6  0  0  0
 18 20  1  0  0  0  0
 18 21  1  0  0  0  0
 22 23  1  0  0  0  0
 23 25  1  0  0  0  0
 23 24  2  0  0  0  0
 25 26  1  0  0  0  0
 26 28  1  0  0  0  0
 26 27  1  0  0  0  0
 28 29  1  0  0  0  0
 29 30  1  0  0  0  0
 29 31  2  0  0  0  0
 30 32  1  0  0  0  0
 32 33  1  0  0  0  0
 16 17  1  0  0  0  0
 17 19  1  0  0  0  0
 18 19  1  0  0  0  0
 22 18  1  0  0  0  0
 16 22  1  0  0  0  0
 22 34  1  1  0  0  0
M  END

>  <ACTIVITY>
5.00
$$$$
53704

  Mrv0541 05041708492D          

 26 27  0  0  1  0            999 V2000
    9.0495   -5.0053    0.0000 N   0  0  0  0  0  0  0  0  0  0  0  0
    9.8341   -3.9254    0.0000 S   0  0  0  0  0  0  0  0  0  0  0  0
   11.0335   -5.0053    0.0000 C   0  0  0  0  0  0  0  0  0  0  0  0
   10.3190   -4.5928    0.0000 C   0  0  0  0  0  0  0  0  0  0  0  0
   11.0335   -4.1803    0.0000 C   0  0  0  0  0  0  0  0  0  0  0  0
    9.8341   -5.2603    0.0000 C   0  0  2  0  0  0  0  0  0  0  0  0
   10.8960   -6.2164    0.0000 O   0  0  0  0  0  0  0  0  0  0  0  0
   10.0890   -6.0449    0.0000 C   0  0  0  0  0  0  0  0  0  0  0  0
    9.5370   -6.6580    0.0000 O   0  0  0  0  0  0  0  0  0  0  0  0
    8.3351   -2.9427    0.0000 N   0  0  0  0  0  0  0  0  0  0  0  0
    7.6206   -2.5302    0.0000 C   0  0  0  0  0  0  0  0  0  0  0  0
    6.9061   -2.9427    0.0000 O   0  0  0  0  0  0  0  0  0  0  0  0
    7.6206   -1.7053    0.0000 C   0  0  1  0  0  0  0  0  0  0  0  0
    6.9062   -0.4677    0.0000 C   0  0  0  0  0  0  0  0  0  0  0  0
    6.1917   -0.0552    0.0000 C   0  0  0  0  0  0  0  0  0  0  0  0
    5.4772   -0.4676    0.0000 C   0  0  0  0  0  0  0  0  0  0  0  0
    5.4772   -1.2927    0.0000 C   0  0  0  0  0  0  0  0  0  0  0  0
    6.1917   -1.7052    0.0000 C   0  0  0  0  0  0  0  0  0  0  0  0
    6.9062   -1.2927    0.0000 C   0  0  0  0  0  0  0  0  0  0  0  0
    9.0495   -4.1803    0.0000 C   0  0  2  0  0  0  0  0  0  0  0  0
    9.0495   -3.3553    0.0000 H   0  0  0  0  0  0  0  0  0  0  0  0
    8.3351   -3.7678    0.0000 C   0  0  1  0  0  0  0  0  0  0  0  0
    7.6206   -4.1803    0.0000 C   0  0  0  0  0  0  0  0  0  0  0  0
    6.9061   -3.7678    0.0000 O   0  0  0  0  0  0  0  0  0  0  0  0
    7.6206   -5.0053    0.0000 *   0  0  0  0  0  0  0  0  0  0  0  0
    8.3351   -1.2929    0.0000 N   0  0  0  0  0  0  0  0  0  0  0  0
  1  6  1  0  0  0  0
 20  1  1  0  0  0  0
  2 20  1  0  0  0  0
  2  4  1  0  0  0  0
  6  4  1  0  0  0  0
  4  3  1  0  0  0  0
  4  5  1  0  0  0  0
  6  8  1  6  0  0  0
  8  7  1  0  0  0  0
  8  9  2  0  0  0  0
 22 10  1  1  0  0  0
 10 11  1  0  0  0  0
 11 13  1  0  0  0  0
 11 12  2  0  0  0  0
 13 19  1  0  0  0  0
 14 15  1  0  0  0  0
 14 19  2  0  0  0  0
 15 16  2  0  0  0  0
 16 17  1  0  0  0  0
 17 18  2  0  0  0  0
 18 19  1  0  0  0  0
 20 21  1  6  0  0  0
 20 22  1  0  0  0  0
 22 23  1  0  0  0  0
 23 24  2  0  0  0  0
 23 25  1  0  0  0  0
 13 26  1  1  0  0  0
M  END

>  <ACTIVITY>
5.00
$$$$
8255

  Mrv0541 05041708492D          

 33 35  0  0  0  0            999 V2000
    0.0000    0.8250    0.0000 C   0  0  0  0  0  0  0  0  0  0  0  0
    0.7145    0.4125    0.0000 C   0  0  0  0  0  0  0  0  0  0  0  0
    0.7145   -0.4125    0.0000 C   0  0  0  0  0  0  0  0  0  0  0  0
    0.0000   -0.8250    0.0000 C   0  0  0  0  0  0  0  0  0  0  0  0
   -0.7145   -0.4125    0.0000 C   0  0  0  0  0  0  0  0  0  0  0  0
   -0.7145    0.4125    0.0000 C   0  0  0  0  0  0  0  0  0  0  0  0
    3.5724    0.4125    0.0000 C   0  0  2  0  0  0  0  0  0  0  0  0
    3.5724   -0.4125    0.0000 C   0  0  0  0  0  0  0  0  0  0  0  0
    4.3974   -0.4125    0.0000 N   0  0  0  0  0  0  0  0  0  0  0  0
    4.3974    0.4125    0.0000 C   0  0  2  0  0  0  0  0  0  0  0  0
    5.6669    0.0000    0.0000 C   0  0  0  0  0  0  0  0  0  0  0  0
    5.1820    0.6674    0.0000 S   0  0  0  0  0  0  0  0  0  0  0  0
    6.3857   -0.4050    0.0000 C   0  0  0  0  0  0  0  0  0  0  0  0
    6.3857    0.4050    0.0000 C   0  0  0  0  0  0  0  0  0  0  0  0
    2.8579    0.8250    0.0000 N   0  0  0  0  0  0  0  0  0  0  0  0
    2.1434    0.4125    0.0000 C   0  0  0  0  0  0  0  0  0  0  0  0
    2.1434   -0.4125    0.0000 O   0  0  0  0  0  0  0  0  0  0  0  0
    1.4289    0.8250    0.0000 C   0  0  2  0  0  0  0  0  0  0  0  0
    1.4289    1.6500    0.0000 N   0  0  0  0  0  0  0  0  0  0  0  0
    2.9890   -0.9959    0.0000 O   0  0  0  0  0  0  0  0  0  0  0  0
    5.8964   -1.9049    0.0000 O   0  0  0  0  0  0  0  0  0  0  0  0
    6.6109   -1.4924    0.0000 C   0  0  0  0  0  0  0  0  0  0  0  0
    7.3254   -1.9049    0.0000 O   0  0  0  0  0  0  0  0  0  0  0  0
    8.0399   -1.4924    0.0000 C   0  0  0  0  0  0  0  0  0  0  0  0
    8.0399   -0.6674    0.0000 O   0  0  0  0  0  0  0  0  0  0  0  0
    8.7543   -1.9049    0.0000 C   0  0  0  0  0  0  0  0  0  0  0  0
    8.7543   -2.7299    0.0000 C   0  0  0  0  0  0  0  0  0  0  0  0
    9.4688   -1.4924    0.0000 C   0  0  0  0  0  0  0  0  0  0  0  0
    9.4688   -2.3174    0.0000 C   0  0  0  0  0  0  0  0  0  0  0  0
    5.1820   -1.4924    0.0000 C   0  0  0  0  0  0  0  0  0  0  0  0
    4.4675   -1.9049    0.0000 O   0  0  0  0  0  0  0  0  0  0  0  0
    5.1820   -0.6674    0.0000 C   0  0  2  0  0  0  0  0  0  0  0  0
    4.3974    1.2375    0.0000 H   0  0  0  0  0  0  0  0  0  0  0  0
  4  3  2  0  0  0  0
  2  3  1  0  0  0  0
 18  2  1  0  0  0  0
  2  1  2  0  0  0  0
  1  6  1  0  0  0  0
  6  5  2  0  0  0  0
  5  4  1  0  0  0  0
  7  8  1  0  0  0  0
  8  9  1  0  0  0  0
 10  9  1  0  0  0  0
 10  7  1  0  0  0  0
  9 32  1  0  0  0  0
 32 11  1  0  0  0  0
 11 12  1  0  0  0  0
 10 12  1  0  0  0  0
 11 13  1  0  0  0  0
 11 14  1  0  0  0  0
  7 15  1  1  0  0  0
 15 16  1  0  0  0  0
 16 17  2  0  0  0  0
 16 18  1  0  0  0  0
 18 19  1  1  0  0  0
  8 20  2  0  0  0  0
 21 22  1  0  0  0  0
 22 23  1  0  0  0  0
 23 24  1  0  0  0  0
 24 25  2  0  0  0  0
 24 26  1  0  0  0  0
 26 27  1  0  0  0  0
 26 28  1  0  0  0  0
 26 29  1  0  0  0  0
 21 30  1  0  0  0  0
 30 31  2  0  0  0  0
 32 30  1  6  0  0  0
 10 33  1  6  0  0  0
M  END

>  <ACTIVITY>
5.00
$$$$
474053

  Mrv0541 05041708492D          

 30 33  0  0  1  0            999 V2000
   17.0907   -9.3958    0.0000 C   0  0  2  0  0  0  0  0  0  0  0  0
   17.0907  -10.2207    0.0000 N   0  0  0  0  0  0  0  0  0  0  0  0
   17.8054  -10.6331    0.0000 C   0  0  0  0  0  0  0  0  0  0  0  0
   18.5196  -10.2207    0.0000 C   0  0  0  0  0  0  0  0  0  0  0  0
   18.5196   -9.3958    0.0000 C   0  0  0  0  0  0  0  0  0  0  0  0
   17.8054   -8.9833    0.0000 S   0  0  0  0  0  0  0  0  0  0  0  0
   16.2657   -9.3958    0.0000 C   0  0  1  0  0  0  0  0  0  0  0  0
   16.2657  -10.2207    0.0000 C   0  0  0  0  0  0  0  0  0  0  0  0
   15.5515   -8.9833    0.0000 N   0  0  0  0  0  0  0  0  0  0  0  0
   15.5515   -8.1582    0.0000 C   0  0  0  0  0  0  0  0  0  0  0  0
   16.2660   -7.7459    0.0000 O   0  0  0  0  0  0  0  0  0  0  0  0
   15.5515  -10.6331    0.0000 O   0  0  0  0  0  0  0  0  0  0  0  0
   14.8372   -7.7456    0.0000 C   0  0  0  0  0  0  0  0  0  0  0  0
   19.2451  -10.6398    0.0000 C   0  0  0  0  0  0  0  0  0  0  0  0
   17.8054  -11.4581    0.0000 C   0  0  0  0  0  0  0  0  0  0  0  0
   17.0808  -11.8764    0.0000 O   0  0  0  0  0  0  0  0  0  0  0  0
   18.5096  -11.8649    0.0000 O   0  0  0  0  0  0  0  0  0  0  0  0
   14.8376   -6.9071    0.0000 N   0  0  0  0  0  0  0  0  0  0  0  0
   17.0907   -8.5701    0.0000 H   0  0  0  0  0  0  0  0  0  0  0  0
   19.9625  -10.2258    0.0000 S   0  0  0  0  0  0  0  0  0  0  0  0
   19.9626   -9.4002    0.0000 C   0  0  0  0  0  0  0  0  0  0  0  0
   20.6306   -8.9151    0.0000 N   0  0  0  0  0  0  0  0  0  0  0  0
   20.3756   -8.1299    0.0000 N   0  0  0  0  0  0  0  0  0  0  0  0
   19.5502   -8.1298    0.0000 C   0  0  0  0  0  0  0  0  0  0  0  0
   19.2949   -8.9149    0.0000 S   0  0  0  0  0  0  0  0  0  0  0  0
   19.0651   -7.4618    0.0000 C   0  0  0  0  0  0  0  0  0  0  0  0
   14.1757   -6.4021    0.0000 C   0  0  0  0  0  0  0  0  0  0  0  0
   14.4506   -5.6140    0.0000 N   0  0  0  0  0  0  0  0  0  0  0  0
   15.2852   -5.6318    0.0000 N   0  0  0  0  0  0  0  0  0  0  0  0
   15.5261   -6.4311    0.0000 N   0  0  0  0  0  0  0  0  0  0  0  0
  1  2  1  0  0  0  0
  2  3  1  0  0  0  0
  3  4  2  0  0  0  0
  4  5  1  0  0  0  0
  5  6  1  0  0  0  0
  1  6  1  0  0  0  0
  1  7  1  0  0  0  0
  7  8  1  0  0  0  0
  2  8  1  0  0  0  0
  7  9  1  1  0  0  0
  9 10  1  0  0  0  0
 10 11  2  0  0  0  0
  8 12  2  0  0  0  0
 10 13  1  0  0  0  0
  4 14  1  0  0  0  0
  3 15  1  0  0  0  0
 15 16  2  0  0  0  0
 15 17  1  0  0  0  0
 13 18  1  0  0  0  0
  1 19  1  6  0  0  0
 14 20  1  0  0  0  0
 20 21  1  0  0  0  0
 21 22  2  0  0  0  0
 22 23  1  0  0  0  0
 23 24  2  0  0  0  0
 24 25  1  0  0  0  0
 21 25  1  0  0  0  0
 24 26  1  0  0  0  0
 18 27  1  0  0  0  0
 27 28  2  0  0  0  0
 28 29  1  0  0  0  0
 29 30  2  0  0  0  0
 18 30  1  0  0  0  0
M  END

>  <ACTIVITY>
5.00
$$$$
34615

  Mrv0541 05041708492D          

 36 33  0  0  0  0            999 V2000
   10.6678   -8.7387    0.0000 C   0  0  2  0  0  0  0  0  0  0  0  0
   10.6678   -9.5637    0.0000 N   0  0  0  0  0  0  0  0  0  0  0  0
   11.3824   -9.9761    0.0000 C   0  0  0  0  0  0  0  0  0  0  0  0
   12.0968   -9.5637    0.0000 C   0  0  0  0  0  0  0  0  0  0  0  0
   12.0968   -8.7387    0.0000 C   0  0  0  0  0  0  0  0  0  0  0  0
   11.3824   -8.3262    0.0000 S   0  0  0  0  0  0  0  0  0  0  0  0
    9.8428   -8.7387    0.0000 C   0  0  1  0  0  0  0  0  0  0  0  0
    9.8428   -9.5637    0.0000 C   0  0  0  0  0  0  0  0  0  0  0  0
    9.1285   -8.3262    0.0000 N   0  0  0  0  0  0  0  0  0  0  0  0
    8.4140   -8.7387    0.0000 C   0  0  0  0  0  0  0  0  0  0  0  0
    8.4140   -9.5637    0.0000 O   0  0  0  0  0  0  0  0  0  0  0  0
    9.1285   -9.9761    0.0000 O   0  0  0  0  0  0  0  0  0  0  0  0
    7.6995   -8.3262    0.0000 C   0  0  0  0  0  0  0  0  0  0  0  0
   12.8221   -9.9827    0.0000 C   0  0  0  0  0  0  0  0  0  0  0  0
   11.3824  -10.8010    0.0000 C   0  0  0  0  0  0  0  0  0  0  0  0
   10.6579  -11.2192    0.0000 O   0  0  0  0  0  0  0  0  0  0  0  0
   12.0867  -11.2077    0.0000 O   0  5  0  0  0  0  0  0  0  0  0  0
    6.9736   -8.7456    0.0000 N   0  0  0  0  0  0  0  0  0  0  0  0
   10.6678   -7.9129    0.0000 H   0  0  0  0  0  0  0  0  0  0  0  0
   13.5394   -9.5687    0.0000 S   0  0  0  0  0  0  0  0  0  0  0  0
   14.2537   -9.9812    0.0000 C   0  0  0  0  0  0  0  0  0  0  0  0
   14.5042  -10.7662    0.0000 N   0  0  0  0  0  0  0  0  0  0  0  0
   15.3297  -10.7729    0.0000 N   0  0  0  0  0  0  0  0  0  0  0  0
   15.5912   -9.9899    0.0000 C   0  0  0  0  0  0  0  0  0  0  0  0
   14.9273   -9.4992    0.0000 S   0  0  0  0  0  0  0  0  0  0  0  0
   16.4163   -9.9788    0.0000 C   0  0  0  0  0  0  0  0  0  0  0  0
    6.2929   -8.2663    0.0000 C   0  0  0  0  0  0  0  0  0  0  0  0
    5.6241   -8.7657    0.0000 N   0  0  0  0  0  0  0  0  0  0  0  0
    5.8923   -9.5562    0.0000 N   0  0  0  0  0  0  0  0  0  0  0  0
    6.7269   -9.5455    0.0000 N   0  0  0  0  0  0  0  0  0  0  0  0
   12.9497  -11.1708    0.0000 Na  0  3  0  0  0  0  0  0  0  0  0  0
   15.1429   -8.4403    0.0000 O   0  0  0  0  0  0  0  0  0  0  0  0
   15.1429   -8.4403    0.0000 O   0  0  0  0  0  0  0  0  0  0  0  0
   15.1429   -8.4403    0.0000 O   0  0  0  0  0  0  0  0  0  0  0  0
   15.1429   -8.4403    0.0000 O   0  0  0  0  0  0  0  0  0  0  0  0
   15.1429   -8.4403    0.0000 O   0  0  0  0  0  0  0  0  0  0  0  0
  1  2  1  0  0  0  0
  2  3  1  0  0  0  0
  3  4  2  0  0  0  0
  4  5  1  0  0  0  0
  5  6  1  0  0  0  0
  1  6  1  0  0  0  0
  1  7  1  0  0  0  0
  7  8  1  0  0  0  0
  2  8  1  0  0  0  0
  7  9  1  1  0  0  0
  9 10  1  0  0  0  0
 10 11  2  0  0  0  0
  8 12  2  0  0  0  0
 10 13  1  0  0  0  0
  4 14  1  0  0  0  0
  3 15  1  0  0  0  0
 15 16  2  0  0  0  0
 15 17  1  0  0  0  0
 13 18  1  0  0  0  0
  1 19  1  6  0  0  0
 14 20  1  0  0  0  0
 20 21  1  0  0  0  0
 21 22  2  0  0  0  0
 22 23  1  0  0  0  0
 23 24  2  0  0  0  0
 24 25  1  0  0  0  0
 21 25  1  0  0  0  0
 24 26  1  0  0  0  0
 18 27  1  0  0  0  0
 27 28  2  0  0  0  0
 28 29  1  0  0  0  0
 29 30  2  0  0  0  0
 18 30  1  0  0  0  0
M  CHG  2  17  -1  31   1
M  END

>  <ACTIVITY>
5.00
$$$$
53657

  Mrv0541 05041708492D          

 30 33  0  0  1  0            999 V2000
   11.2884   -4.1757    0.0000 C   0  0  2  0  0  0  0  0  0  0  0  0
   11.2884   -5.0007    0.0000 N   0  0  0  0  0  0  0  0  0  0  0  0
   12.0029   -5.4131    0.0000 C   0  0  0  0  0  0  0  0  0  0  0  0
   12.7173   -5.0007    0.0000 C   0  0  0  0  0  0  0  0  0  0  0  0
   12.7173   -4.1757    0.0000 C   0  0  0  0  0  0  0  0  0  0  0  0
   12.0029   -3.7632    0.0000 S   0  0  0  0  0  0  0  0  0  0  0  0
   10.4634   -4.1757    0.0000 C   0  0  1  0  0  0  0  0  0  0  0  0
   10.4634   -5.0007    0.0000 C   0  0  0  0  0  0  0  0  0  0  0  0
    9.7490   -3.7632    0.0000 N   0  0  0  0  0  0  0  0  0  0  0  0
    9.0345   -4.1757    0.0000 C   0  0  0  0  0  0  0  0  0  0  0  0
    9.0345   -5.0007    0.0000 O   0  0  0  0  0  0  0  0  0  0  0  0
    9.7490   -5.4131    0.0000 O   0  0  0  0  0  0  0  0  0  0  0  0
    8.3200   -3.7632    0.0000 C   0  0  0  0  0  0  0  0  0  0  0  0
   13.4428   -5.4197    0.0000 C   0  0  0  0  0  0  0  0  0  0  0  0
   12.0029   -6.2380    0.0000 C   0  0  0  0  0  0  0  0  0  0  0  0
   11.2785   -6.6563    0.0000 O   0  0  0  0  0  0  0  0  0  0  0  0
   12.7073   -6.6448    0.0000 O   0  5  0  0  0  0  0  0  0  0  0  0
    7.5941   -4.1826    0.0000 N   0  0  0  0  0  0  0  0  0  0  0  0
   11.2884   -3.3498    0.0000 H   0  0  0  0  0  0  0  0  0  0  0  0
   14.1601   -5.0057    0.0000 S   0  0  0  0  0  0  0  0  0  0  0  0
   14.8744   -5.4182    0.0000 C   0  0  0  0  0  0  0  0  0  0  0  0
   15.1321   -6.2011    0.0000 N   0  0  0  0  0  0  0  0  0  0  0  0
   15.9577   -6.2004    0.0000 N   0  0  0  0  0  0  0  0  0  0  0  0
   16.2121   -5.4150    0.0000 C   0  0  0  0  0  0  0  0  0  0  0  0
   15.5437   -4.9304    0.0000 S   0  0  0  0  0  0  0  0  0  0  0  0
   17.0370   -5.3964    0.0000 C   0  0  0  0  0  0  0  0  0  0  0  0
    6.9134   -3.7033    0.0000 C   0  0  0  0  0  0  0  0  0  0  0  0
    6.2445   -4.2027    0.0000 N   0  0  0  0  0  0  0  0  0  0  0  0
    6.5127   -4.9932    0.0000 N   0  0  0  0  0  0  0  0  0  0  0  0
    7.3474   -4.9825    0.0000 N   0  0  0  0  0  0  0  0  0  0  0  0
  1  2  1  0  0  0  0
  2  3  1  0  0  0  0
  3  4  2  0  0  0  0
  4  5  1  0  0  0  0
  5  6  1  0  0  0  0
  1  6  1  0  0  0  0
  1  7  1  0  0  0  0
  7  8  1  0  0  0  0
  2  8  1  0  0  0  0
  7  9  1  1  0  0  0
  9 10  1  0  0  0  0
 10 11  2  0  0  0  0
  8 12  2  0  0  0  0
 10 13  1  0  0  0  0
  4 14  1  0  0  0  0
  3 15  1  0  0  0  0
 15 16  2  0  0  0  0
 15 17  1  0  0  0  0
 13 18  1  0  0  0  0
  1 19  1  6  0  0  0
 14 20  1  0  0  0  0
 20 21  1  0  0  0  0
 21 22  2  0  0  0  0
 22 23  1  0  0  0  0
 23 24  2  0  0  0  0
 24 25  1  0  0  0  0
 21 25  1  0  0  0  0
 24 26  1  0  0  0  0
 18 27  1  0  0  0  0
 27 28  2  0  0  0  0
 28 29  1  0  0  0  0
 29 30  2  0  0  0  0
 18 30  1  0  0  0  0
M  CHG  1  17  -1
M  END

>  <ACTIVITY>
5.00
$$$$
3483

  Mrv0541 05041708492D          

 31 33  0  0  1  0            999 V2000
   11.2884   -4.1757    0.0000 C   0  0  2  0  0  0  0  0  0  0  0  0
   11.2884   -5.0007    0.0000 N   0  0  0  0  0  0  0  0  0  0  0  0
   12.0029   -5.4131    0.0000 C   0  0  0  0  0  0  0  0  0  0  0  0
   12.7173   -5.0007    0.0000 C   0  0  0  0  0  0  0  0  0  0  0  0
   12.7173   -4.1757    0.0000 C   0  0  0  0  0  0  0  0  0  0  0  0
   12.0029   -3.7632    0.0000 S   0  0  0  0  0  0  0  0  0  0  0  0
   10.4634   -4.1757    0.0000 C   0  0  1  0  0  0  0  0  0  0  0  0
   10.4634   -5.0007    0.0000 C   0  0  0  0  0  0  0  0  0  0  0  0
    9.7490   -3.7632    0.0000 N   0  0  0  0  0  0  0  0  0  0  0  0
    9.0345   -4.1757    0.0000 C   0  0  0  0  0  0  0  0  0  0  0  0
    9.0345   -5.0007    0.0000 O   0  0  0  0  0  0  0  0  0  0  0  0
    9.7490   -5.4131    0.0000 O   0  0  0  0  0  0  0  0  0  0  0  0
    8.3200   -3.7632    0.0000 C   0  0  0  0  0  0  0  0  0  0  0  0
   13.4428   -5.4197    0.0000 C   0  0  0  0  0  0  0  0  0  0  0  0
   12.0029   -6.2380    0.0000 C   0  0  0  0  0  0  0  0  0  0  0  0
   11.2785   -6.6563    0.0000 O   0  0  0  0  0  0  0  0  0  0  0  0
   12.7073   -6.6448    0.0000 O   0  5  0  0  0  0  0  0  0  0  0  0
    7.5941   -4.1826    0.0000 N   0  0  0  0  0  0  0  0  0  0  0  0
   11.2884   -3.3498    0.0000 H   0  0  0  0  0  0  0  0  0  0  0  0
   14.1601   -5.0057    0.0000 S   0  0  0  0  0  0  0  0  0  0  0  0
   14.8744   -5.4182    0.0000 C   0  0  0  0  0  0  0  0  0  0  0  0
   15.1321   -6.2011    0.0000 N   0  0  0  0  0  0  0  0  0  0  0  0
   15.9577   -6.2004    0.0000 N   0  0  0  0  0  0  0  0  0  0  0  0
   16.2121   -5.4150    0.0000 C   0  0  0  0  0  0  0  0  0  0  0  0
   15.5437   -4.9304    0.0000 S   0  0  0  0  0  0  0  0  0  0  0  0
   17.0370   -5.3964    0.0000 C   0  0  0  0  0  0  0  0  0  0  0  0
    6.9134   -3.7033    0.0000 C   0  0  0  0  0  0  0  0  0  0  0  0
    6.2445   -4.2027    0.0000 N   0  0  0  0  0  0  0  0  0  0  0  0
    6.5127   -4.9932    0.0000 N   0  0  0  0  0  0  0  0  0  0  0  0
    7.3474   -4.9825    0.0000 N   0  0  0  0  0  0  0  0  0  0  0  0
   13.9407   -6.6125    0.0000 Na  0  3  0  0  0  0  0  0  0  0  0  0
  1  2  1  0  0  0  0
  2  3  1  0  0  0  0
  3  4  2  0  0  0  0
  4  5  1  0  0  0  0
  5  6  1  0  0  0  0
  1  6  1  0  0  0  0
  1  7  1  0  0  0  0
  7  8  1  0  0  0  0
  2  8  1  0  0  0  0
  7  9  1  1  0  0  0
  9 10  1  0  0  0  0
 10 11  2  0  0  0  0
  8 12  2  0  0  0  0
 10 13  1  0  0  0  0
  4 14  1  0  0  0  0
  3 15  1  0  0  0  0
 15 16  2  0  0  0  0
 15 17  1  0  0  0  0
 13 18  1  0  0  0  0
  1 19  1  6  0  0  0
 14 20  1  0  0  0  0
 20 21  1  0  0  0  0
 21 22  2  0  0  0  0
 22 23  1  0  0  0  0
 23 24  2  0  0  0  0
 24 25  1  0  0  0  0
 21 25  1  0  0  0  0
 24 26  1  0  0  0  0
 18 27  1  0  0  0  0
 27 28  2  0  0  0  0
 28 29  1  0  0  0  0
 29 30  2  0  0  0  0
 18 30  1  0  0  0  0
M  CHG  2  17  -1  31   1
M  END

>  <ACTIVITY>
5.00
$$$$
135716
ceftezole
  Mrv0541 05041708492D          
null
 29 32  0  0  0  0            999 V2000
    0.4115   -3.6235    0.0000 C   0  0  0  0  0  0  0  0  0  0  0  0
   -0.3030   -4.0370    0.0000 O   0  0  0  0  0  0  0  0  0  0  0  0
    1.1259   -4.0370    0.0000 O   0  0  0  0  0  0  0  0  0  0  0  0
    0.4115   -2.7985    0.0000 C   0  0  0  0  0  0  0  0  0  0  0  0
   -0.3030   -2.3870    0.0000 N   0  0  0  0  0  0  0  0  0  0  0  0
    1.1259   -2.3870    0.0000 C   0  0  0  0  0  0  0  0  0  0  0  0
   -0.3030   -1.5620    0.0000 C   0  0  1  0  0  0  0  0  0  0  0  0
   -1.1280   -2.3870    0.0000 C   0  0  0  0  0  0  0  0  0  0  0  0
    1.8404   -2.7985    0.0000 C   0  0  0  0  0  0  0  0  0  0  0  0
    1.1259   -1.5620    0.0000 C   0  0  0  0  0  0  0  0  0  0  0  0
   -1.1280   -1.5620    0.0000 C   0  0  1  0  0  0  0  0  0  0  0  0
    0.4115   -1.1485    0.0000 S   0  0  0  0  0  0  0  0  0  0  0  0
   -1.7114   -2.9684    0.0000 O   0  0  0  0  0  0  0  0  0  0  0  0
    2.5549   -2.3870    0.0000 S   0  0  0  0  0  0  0  0  0  0  0  0
   -1.8445   -1.1485    0.0000 N   0  0  0  0  0  0  0  0  0  0  0  0
    3.2693   -2.7985    0.0000 C   0  0  0  0  0  0  0  0  0  0  0  0
   -2.5589   -1.5620    0.0000 C   0  0  0  0  0  0  0  0  0  0  0  0
    3.9510   -2.2928    0.0000 N   0  0  0  0  0  0  0  0  0  0  0  0
    3.5068   -3.5702    0.0000 S   0  0  0  0  0  0  0  0  0  0  0  0
   -2.5589   -2.3870    0.0000 C   0  0  0  0  0  0  0  0  0  0  0  0
   -3.2734   -1.1485    0.0000 O   0  0  0  0  0  0  0  0  0  0  0  0
    4.6061   -2.7985    0.0000 N   0  0  0  0  0  0  0  0  0  0  0  0
    4.3379   -3.5702    0.0000 C   0  0  0  0  0  0  0  0  0  0  0  0
   -3.2734   -2.7985    0.0000 N   0  0  0  0  0  0  0  0  0  0  0  0
   -3.5395   -3.5702    0.0000 C   0  0  0  0  0  0  0  0  0  0  0  0
   -3.9264   -2.2928    0.0000 N   0  0  0  0  0  0  0  0  0  0  0  0
   -4.3707   -3.5702    0.0000 N   0  0  0  0  0  0  0  0  0  0  0  0
   -4.6082   -2.7985    0.0000 N   0  0  0  0  0  0  0  0  0  0  0  0
   -0.3030   -0.7370    0.0000 H   0  0  0  0  0  0  0  0  0  0  0  0
  1  2  1  0  0  0  0
  1  3  2  0  0  0  0
  1  4  1  0  0  0  0
  4  5  1  0  0  0  0
  4  6  2  0  0  0  0
  7  5  1  0  0  0  0
  5  8  1  0  0  0  0
  6  9  1  0  0  0  0
  6 10  1  0  0  0  0
 11  7  1  0  0  0  0
  7 12  1  0  0  0  0
  7 29  1  6  0  0  0
 11  8  1  0  0  0  0
  8 13  2  0  0  0  0
  9 14  1  0  0  0  0
 10 12  1  0  0  0  0
 11 15  1  1  0  0  0
 14 16  1  0  0  0  0
 15 17  1  0  0  0  0
 16 18  2  0  0  0  0
 16 19  1  0  0  0  0
 17 20  1  0  0  0  0
 17 21  2  0  0  0  0
 18 22  1  0  0  0  0
 19 23  1  0  0  0  0
 20 24  1  0  0  0  0
 22 23  2  0  0  0  0
 24 25  1  0  0  0  0
 24 26  1  0  0  0  0
 25 27  2  0  0  0  0
 26 28  2  0  0  0  0
 27 28  1  0  0  0  0
M  END

>  <ACTIVITY>
5.00
$$$$
59349

  Mrv0541 05041708492D          

 33 36  0  0  1  0            999 V2000
    9.9221   -6.8924    0.0000 C   0  0  0  0  0  0  0  0  0  0  0  0
    9.9221   -6.0674    0.0000 C   0  0  0  0  0  0  0  0  0  0  0  0
    9.2059   -5.6570    0.0000 S   0  0  0  0  0  0  0  0  0  0  0  0
    9.2059   -7.3112    0.0000 C   0  0  0  0  0  0  0  0  0  0  0  0
    8.4937   -6.8924    0.0000 N   0  0  0  0  0  0  0  0  0  0  0  0
    8.4991   -6.0675    0.0000 C   0  0  1  0  0  0  0  0  0  0  0  0
    7.6700   -6.0622    0.0000 C   0  0  1  0  0  0  0  0  0  0  0  0
    7.6647   -6.8912    0.0000 C   0  0  0  0  0  0  0  0  0  0  0  0
    7.0770   -7.4753    0.0000 O   0  0  0  0  0  0  0  0  0  0  0  0
    9.2059   -8.1403    0.0000 C   0  0  0  0  0  0  0  0  0  0  0  0
    9.9217   -8.5528    0.0000 O   0  0  0  0  0  0  0  0  0  0  0  0
    8.4859   -8.5528    0.0000 O   0  0  0  0  0  0  0  0  0  0  0  0
   10.6398   -7.3059    0.0000 C   0  0  0  0  0  0  0  0  0  0  0  0
    8.5070   -5.2405    0.0000 H   0  0  0  0  0  0  0  0  0  0  0  0
    6.9651   -5.6333    0.0000 N   0  0  0  0  0  0  0  0  0  0  0  0
    6.2508   -6.0460    0.0000 C   0  0  0  0  0  0  0  0  0  0  0  0
    5.5362   -5.6340    0.0000 C   0  0  0  0  0  0  0  0  0  0  0  0
    6.2513   -6.8710    0.0000 O   0  0  0  0  0  0  0  0  0  0  0  0
    5.5359   -4.8090    0.0000 N   0  0  0  0  0  0  0  0  0  0  0  0
    6.2502   -4.3961    0.0000 O   0  0  0  0  0  0  0  0  0  0  0  0
    6.2497   -3.5712    0.0000 C   0  0  0  0  0  0  0  0  0  0  0  0
    4.8220   -6.0467    0.0000 C   0  0  0  0  0  0  0  0  0  0  0  0
    4.0708   -5.7144    0.0000 C   0  0  0  0  0  0  0  0  0  0  0  0
    3.5191   -6.3278    0.0000 S   0  0  0  0  0  0  0  0  0  0  0  0
    3.9320   -7.0421    0.0000 C   0  0  0  0  0  0  0  0  0  0  0  0
    4.7387   -6.8701    0.0000 N   0  0  0  0  0  0  0  0  0  0  0  0
    3.5968   -7.7959    0.0000 N   0  0  0  0  0  0  0  0  0  0  0  0
   11.3538   -6.8927    0.0000 N   0  3  0  0  0  0  0  0  0  0  0  0
   12.1092   -7.2324    0.0000 C   0  0  0  0  0  0  0  0  0  0  0  0
   12.6607   -6.6188    0.0000 C   0  0  0  0  0  0  0  0  0  0  0  0
   12.2475   -5.9047    0.0000 C   0  0  0  0  0  0  0  0  0  0  0  0
   11.4407   -6.0771    0.0000 C   0  0  0  0  0  0  0  0  0  0  0  0
   11.3591   -7.7183    0.0000 C   0  0  0  0  0  0  0  0  0  0  0  0
 15 16  1  0  0  0  0
  1  4  2  0  0  0  0
 16 17  1  0  0  0  0
  2  3  1  0  0  0  0
 16 18  2  0  0  0  0
  3  6  1  0  0  0  0
 17 19  2  0  0  0  0
  5  4  1  0  0  0  0
 19 20  1  0  0  0  0
  5  6  1  0  0  0  0
 20 21  1  0  0  0  0
  6  7  1  0  0  0  0
 17 22  1  0  0  0  0
 22 23  2  0  0  0  0
  7  8  1  0  0  0  0
  8  5  1  0  0  0  0
  8  9  2  0  0  0  0
  4 10  1  0  0  0  0
 23 24  1  0  0  0  0
 24 25  1  0  0  0  0
 25 26  2  0  0  0  0
 26 22  1  0  0  0  0
 10 11  1  0  0  0  0
 25 27  1  0  0  0  0
 10 12  2  0  0  0  0
 13 28  1  0  0  0  0
 28 29  1  0  0  0  0
  1 13  1  0  0  0  0
  6 14  1  6  0  0  0
  7 15  1  1  0  0  0
 29 30  1  0  0  0  0
 30 31  1  0  0  0  0
 31 32  1  0  0  0  0
 32 28  1  0  0  0  0
  1  2  1  0  0  0  0
 28 33  1  0  0  0  0
M  CHG  1  28   1
M  END

>  <ACTIVITY>
5.00
$$$$
478164

  Mrv0541 05041708492D          

 33 36  0  0  1  0            999 V2000
    9.9221   -6.8924    0.0000 C   0  0  0  0  0  0  0  0  0  0  0  0
    9.9221   -6.0674    0.0000 C   0  0  0  0  0  0  0  0  0  0  0  0
    9.2059   -5.6570    0.0000 S   0  0  0  0  0  0  0  0  0  0  0  0
    9.2059   -7.3112    0.0000 C   0  0  0  0  0  0  0  0  0  0  0  0
    8.4937   -6.8924    0.0000 N   0  0  0  0  0  0  0  0  0  0  0  0
    8.4991   -6.0675    0.0000 C   0  0  1  0  0  0  0  0  0  0  0  0
    7.6700   -6.0622    0.0000 C   0  0  1  0  0  0  0  0  0  0  0  0
    7.6647   -6.8912    0.0000 C   0  0  0  0  0  0  0  0  0  0  0  0
    7.0770   -7.4753    0.0000 O   0  0  0  0  0  0  0  0  0  0  0  0
    9.2059   -8.1403    0.0000 C   0  0  0  0  0  0  0  0  0  0  0  0
    9.9217   -8.5528    0.0000 O   0  5  0  0  0  0  0  0  0  0  0  0
    8.4859   -8.5528    0.0000 O   0  0  0  0  0  0  0  0  0  0  0  0
   10.6398   -7.3059    0.0000 C   0  0  0  0  0  0  0  0  0  0  0  0
    8.5070   -5.2405    0.0000 H   0  0  0  0  0  0  0  0  0  0  0  0
    6.9651   -5.6333    0.0000 N   0  0  0  0  0  0  0  0  0  0  0  0
    6.2508   -6.0460    0.0000 C   0  0  0  0  0  0  0  0  0  0  0  0
    5.5362   -5.6340    0.0000 C   0  0  0  0  0  0  0  0  0  0  0  0
    6.2513   -6.8710    0.0000 O   0  0  0  0  0  0  0  0  0  0  0  0
    5.5359   -4.8090    0.0000 N   0  0  0  0  0  0  0  0  0  0  0  0
    6.2502   -4.3961    0.0000 O   0  0  0  0  0  0  0  0  0  0  0  0
    6.2497   -3.5712    0.0000 C   0  0  0  0  0  0  0  0  0  0  0  0
    4.8220   -6.0467    0.0000 C   0  0  0  0  0  0  0  0  0  0  0  0
    4.0708   -5.7144    0.0000 C   0  0  0  0  0  0  0  0  0  0  0  0
    3.5191   -6.3278    0.0000 S   0  0  0  0  0  0  0  0  0  0  0  0
    3.9320   -7.0421    0.0000 C   0  0  0  0  0  0  0  0  0  0  0  0
    4.7387   -6.8701    0.0000 N   0  0  0  0  0  0  0  0  0  0  0  0
    3.5968   -7.7959    0.0000 N   0  0  0  0  0  0  0  0  0  0  0  0
   11.3538   -6.8927    0.0000 N   0  3  0  0  0  0  0  0  0  0  0  0
   12.1092   -7.2324    0.0000 C   0  0  0  0  0  0  0  0  0  0  0  0
   12.6607   -6.6188    0.0000 C   0  0  0  0  0  0  0  0  0  0  0  0
   12.2475   -5.9047    0.0000 C   0  0  0  0  0  0  0  0  0  0  0  0
   11.4407   -6.0771    0.0000 C   0  0  0  0  0  0  0  0  0  0  0  0
   11.3591   -7.7183    0.0000 C   0  0  0  0  0  0  0  0  0  0  0  0
 15 16  1  0  0  0  0
  1  4  2  0  0  0  0
 16 17  1  0  0  0  0
  2  3  1  0  0  0  0
 16 18  2  0  0  0  0
  3  6  1  0  0  0  0
 17 19  2  0  0  0  0
  5  4  1  0  0  0  0
 19 20  1  0  0  0  0
  5  6  1  0  0  0  0
 20 21  1  0  0  0  0
  6  7  1  0  0  0  0
 17 22  1  0  0  0  0
 22 23  2  0  0  0  0
  7  8  1  0  0  0  0
  8  5  1  0  0  0  0
  8  9  2  0  0  0  0
  4 10  1  0  0  0  0
 23 24  1  0  0  0  0
 24 25  1  0  0  0  0
 25 26  2  0  0  0  0
 26 22  1  0  0  0  0
 10 11  1  0  0  0  0
 25 27  1  0  0  0  0
 10 12  2  0  0  0  0
 13 28  1  0  0  0  0
 28 29  1  0  0  0  0
  1 13  1  0  0  0  0
  6 14  1  6  0  0  0
  7 15  1  1  0  0  0
 29 30  1  0  0  0  0
 30 31  1  0  0  0  0
 31 32  1  0  0  0  0
 32 28  1  0  0  0  0
  1  2  1  0  0  0  0
 28 33  1  0  0  0  0
M  CHG  2  11  -1  28   1
M  END

>  <ACTIVITY>
5.00
$$$$
31368

  Mrv0541 05041708492D          

 36 36  0  0  1  0            999 V2000
    9.9221   -6.8924    0.0000 C   0  0  0  0  0  0  0  0  0  0  0  0
    9.9221   -6.0674    0.0000 C   0  0  0  0  0  0  0  0  0  0  0  0
    9.2059   -5.6570    0.0000 S   0  0  0  0  0  0  0  0  0  0  0  0
    9.2059   -7.3112    0.0000 C   0  0  0  0  0  0  0  0  0  0  0  0
    8.4937   -6.8924    0.0000 N   0  0  0  0  0  0  0  0  0  0  0  0
    8.4991   -6.0675    0.0000 C   0  0  1  0  0  0  0  0  0  0  0  0
    7.6700   -6.0622    0.0000 C   0  0  1  0  0  0  0  0  0  0  0  0
    7.6647   -6.8912    0.0000 C   0  0  0  0  0  0  0  0  0  0  0  0
    7.0770   -7.4753    0.0000 O   0  0  0  0  0  0  0  0  0  0  0  0
    9.2059   -8.1403    0.0000 C   0  0  0  0  0  0  0  0  0  0  0  0
    9.9217   -8.5528    0.0000 O   0  0  0  0  0  0  0  0  0  0  0  0
    8.4859   -8.5528    0.0000 O   0  0  0  0  0  0  0  0  0  0  0  0
   10.6398   -7.3059    0.0000 C   0  0  0  0  0  0  0  0  0  0  0  0
    8.5070   -5.2405    0.0000 H   0  0  0  0  0  0  0  0  0  0  0  0
    6.9651   -5.6333    0.0000 N   0  0  0  0  0  0  0  0  0  0  0  0
    6.2508   -6.0460    0.0000 C   0  0  0  0  0  0  0  0  0  0  0  0
    5.5362   -5.6340    0.0000 C   0  0  0  0  0  0  0  0  0  0  0  0
    6.2513   -6.8710    0.0000 O   0  0  0  0  0  0  0  0  0  0  0  0
    5.5359   -4.8090    0.0000 N   0  0  0  0  0  0  0  0  0  0  0  0
    6.2502   -4.3961    0.0000 O   0  0  0  0  0  0  0  0  0  0  0  0
    6.2497   -3.5712    0.0000 C   0  0  0  0  0  0  0  0  0  0  0  0
    4.8220   -6.0467    0.0000 C   0  0  0  0  0  0  0  0  0  0  0  0
    4.0708   -5.7144    0.0000 C   0  0  0  0  0  0  0  0  0  0  0  0
    3.5191   -6.3278    0.0000 S   0  0  0  0  0  0  0  0  0  0  0  0
    3.9320   -7.0421    0.0000 C   0  0  0  0  0  0  0  0  0  0  0  0
    4.7387   -6.8701    0.0000 N   0  0  0  0  0  0  0  0  0  0  0  0
    3.5968   -7.7959    0.0000 N   0  0  0  0  0  0  0  0  0  0  0  0
   11.3538   -6.8927    0.0000 N   0  3  0  0  0  0  0  0  0  0  0  0
   12.1092   -7.2324    0.0000 C   0  0  0  0  0  0  0  0  0  0  0  0
   12.6607   -6.6188    0.0000 C   0  0  0  0  0  0  0  0  0  0  0  0
   12.2475   -5.9047    0.0000 C   0  0  0  0  0  0  0  0  0  0  0  0
   11.4407   -6.0771    0.0000 C   0  0  0  0  0  0  0  0  0  0  0  0
   11.3591   -7.7183    0.0000 C   0  0  0  0  0  0  0  0  0  0  0  0
   11.5198   -8.8660    0.0000 Cl  0  5  0  0  0  0  0  0  0  0  0  0
   10.6253   -4.9002    0.0000 Cl  0  0  0  0  0  0  0  0  0  0  0  0
   10.7445   -3.9957    0.0000 O   0  0  0  0  0  0  0  0  0  0  0  0
 15 16  1  0  0  0  0
  1  4  2  0  0  0  0
 16 17  1  0  0  0  0
  2  3  1  0  0  0  0
 16 18  2  0  0  0  0
  3  6  1  0  0  0  0
 17 19  2  0  0  0  0
  5  4  1  0  0  0  0
 19 20  1  0  0  0  0
  5  6  1  0  0  0  0
 20 21  1  0  0  0  0
  6  7  1  0  0  0  0
 17 22  1  0  0  0  0
 22 23  2  0  0  0  0
  7  8  1  0  0  0  0
  8  5  1  0  0  0  0
  8  9  2  0  0  0  0
  4 10  1  0  0  0  0
 23 24  1  0  0  0  0
 24 25  1  0  0  0  0
 25 26  2  0  0  0  0
 26 22  1  0  0  0  0
 10 11  1  0  0  0  0
 25 27  1  0  0  0  0
 10 12  2  0  0  0  0
 13 28  1  0  0  0  0
 28 29  1  0  0  0  0
  1 13  1  0  0  0  0
  6 14  1  6  0  0  0
  7 15  1  1  0  0  0
 29 30  1  0  0  0  0
 30 31  1  0  0  0  0
 31 32  1  0  0  0  0
 32 28  1  0  0  0  0
  1  2  1  0  0  0  0
 28 33  1  0  0  0  0
M  CHG  2  28   1  34  -1
M  END

>  <ACTIVITY>
5.00
$$$$
204928
 
  Mrv0541 05041708492D          

 31 33  0  0  1  0            999 V2000
   19.2756  -10.5160    0.0000 C   0  0  2  0  0  0  0  0  0  0  0  0
   19.2756  -11.3410    0.0000 N   0  0  0  0  0  0  0  0  0  0  0  0
   19.9769  -11.7536    0.0000 C   0  0  0  0  0  0  0  0  0  0  0  0
   20.6782  -11.3410    0.0000 C   0  0  0  0  0  0  0  0  0  0  0  0
   20.6782  -10.5160    0.0000 C   0  0  0  0  0  0  0  0  0  0  0  0
   19.9769  -10.1035    0.0000 S   0  0  0  0  0  0  0  0  0  0  0  0
   18.4506  -10.5160    0.0000 C   0  0  1  0  0  0  0  0  0  0  0  0
   18.4506  -11.3410    0.0000 C   0  0  0  0  0  0  0  0  0  0  0  0
   17.7079  -10.1035    0.0000 N   0  0  0  0  0  0  0  0  0  0  0  0
   17.0066  -10.5160    0.0000 C   0  0  0  0  0  0  0  0  0  0  0  0
   17.0066  -11.3410    0.0000 O   0  0  0  0  0  0  0  0  0  0  0  0
   17.7079  -11.7536    0.0000 O   0  0  0  0  0  0  0  0  0  0  0  0
   16.3053  -10.1035    0.0000 C   0  0  0  0  0  0  0  0  0  0  0  0
   21.4207  -11.7536    0.0000 C   0  0  0  0  0  0  0  0  0  0  0  0
   15.5628  -10.5160    0.0000 C   0  0  0  0  0  0  0  0  0  0  0  0
   19.2756   -9.6909    0.0000 H   0  0  0  0  0  0  0  0  0  0  0  0
   14.9440  -10.0209    0.0000 C   0  0  0  0  0  0  0  0  0  0  0  0
   14.2428  -10.4747    0.0000 S   0  0  0  0  0  0  0  0  0  0  0  0
   14.4903  -11.2998    0.0000 C   0  0  0  0  0  0  0  0  0  0  0  0
   15.3153  -11.2998    0.0000 N   0  0  0  0  0  0  0  0  0  0  0  0
   16.3053   -9.2784    0.0000 N   0  0  0  0  0  0  0  0  0  0  0  0
   19.9769  -12.5786    0.0000 C   0  0  0  0  0  0  0  0  0  0  0  0
   20.6782  -12.9912    0.0000 O   0  0  0  0  0  0  0  0  0  0  0  0
   19.2344  -12.9912    0.0000 O   0  0  0  0  0  0  0  0  0  0  0  0
   13.9952  -11.9598    0.0000 N   0  0  0  0  0  0  0  0  0  0  0  0
   22.1309  -11.3277    0.0000 O   0  0  0  0  0  0  0  0  0  0  0  0
   22.8505  -11.7274    0.0000 C   0  0  0  0  0  0  0  0  0  0  0  0
   23.5487  -11.3086    0.0000 C   0  0  0  0  0  0  0  0  0  0  0  0
   22.8505  -12.5525    0.0000 O   0  0  0  0  0  0  0  0  0  0  0  0
   17.0121   -8.8741    0.0000 O   0  0  0  0  0  0  0  0  0  0  0  0
   17.0121   -8.0490    0.0000 C   0  0  0  0  0  0  0  0  0  0  0  0
  1  2  1  0  0  0  0
  2  3  1  0  0  0  0
  3  4  2  0  0  0  0
  4  5  1  0  0  0  0
  5  6  1  0  0  0  0
  1  6  1  0  0  0  0
  1  7  1  0  0  0  0
  7  8  1  0  0  0  0
  2  8  1  0  0  0  0
  7  9  1  1  0  0  0
  9 10  1  0  0  0  0
 10 11  2  0  0  0  0
  8 12  2  0  0  0  0
 10 13  1  0  0  0  0
  4 14  1  0  0  0  0
 13 15  1  0  0  0  0
  1 16  1  6  0  0  0
 15 17  2  0  0  0  0
 17 18  1  0  0  0  0
 18 19  1  0  0  0  0
 19 20  2  0  0  0  0
 15 20  1  0  0  0  0
 13 21  2  0  0  0  0
  3 22  1  0  0  0  0
 22 23  1  0  0  0  0
 22 24  2  0  0  0  0
 19 25  1  0  0  0  0
 14 26  1  0  0  0  0
 26 27  1  0  0  0  0
 27 28  1  0  0  0  0
 27 29  2  0  0  0  0
 21 30  1  0  0  0  0
 30 31  1  0  0  0  0
M  END

>  <ACTIVITY>
5.00
$$$$
53670

  Mrv0541 05041708492D          

 31 33  0  0  1  0            999 V2000
   12.7373   -5.7058    0.0000 C   0  0  2  0  0  0  0  0  0  0  0  0
   12.7373   -6.5308    0.0000 N   0  0  0  0  0  0  0  0  0  0  0  0
   13.4385   -6.9434    0.0000 C   0  0  0  0  0  0  0  0  0  0  0  0
   14.1398   -6.5308    0.0000 C   0  0  0  0  0  0  0  0  0  0  0  0
   14.1398   -5.7058    0.0000 C   0  0  0  0  0  0  0  0  0  0  0  0
   13.4385   -5.2933    0.0000 S   0  0  0  0  0  0  0  0  0  0  0  0
   11.9123   -5.7058    0.0000 C   0  0  1  0  0  0  0  0  0  0  0  0
   11.9123   -6.5308    0.0000 C   0  0  0  0  0  0  0  0  0  0  0  0
   11.1695   -5.2933    0.0000 N   0  0  0  0  0  0  0  0  0  0  0  0
   10.4682   -5.7058    0.0000 C   0  0  0  0  0  0  0  0  0  0  0  0
   10.4682   -6.5308    0.0000 O   0  0  0  0  0  0  0  0  0  0  0  0
   11.1695   -6.9434    0.0000 O   0  0  0  0  0  0  0  0  0  0  0  0
    9.7669   -5.2933    0.0000 C   0  0  0  0  0  0  0  0  0  0  0  0
   14.8823   -6.9434    0.0000 C   0  0  0  0  0  0  0  0  0  0  0  0
    9.0244   -5.7058    0.0000 C   0  0  0  0  0  0  0  0  0  0  0  0
   12.7373   -4.8807    0.0000 H   0  0  0  0  0  0  0  0  0  0  0  0
    8.4056   -5.2107    0.0000 C   0  0  0  0  0  0  0  0  0  0  0  0
    7.7044   -5.6645    0.0000 S   0  0  0  0  0  0  0  0  0  0  0  0
    7.9519   -6.4896    0.0000 C   0  0  0  0  0  0  0  0  0  0  0  0
    8.7769   -6.4896    0.0000 N   0  0  0  0  0  0  0  0  0  0  0  0
    9.7669   -4.4682    0.0000 N   0  0  0  0  0  0  0  0  0  0  0  0
   13.4385   -7.7684    0.0000 C   0  0  0  0  0  0  0  0  0  0  0  0
   14.1398   -8.1810    0.0000 O   0  5  0  0  0  0  0  0  0  0  0  0
   12.6960   -8.1810    0.0000 O   0  0  0  0  0  0  0  0  0  0  0  0
    7.4568   -7.1496    0.0000 N   0  0  0  0  0  0  0  0  0  0  0  0
   15.5925   -6.5175    0.0000 O   0  0  0  0  0  0  0  0  0  0  0  0
   16.3121   -6.9172    0.0000 C   0  0  0  0  0  0  0  0  0  0  0  0
   17.0103   -6.4984    0.0000 C   0  0  0  0  0  0  0  0  0  0  0  0
   16.3121   -7.7423    0.0000 O   0  0  0  0  0  0  0  0  0  0  0  0
   10.4737   -4.0639    0.0000 O   0  0  0  0  0  0  0  0  0  0  0  0
   10.4737   -3.2388    0.0000 C   0  0  0  0  0  0  0  0  0  0  0  0
  1  2  1  0  0  0  0
  2  3  1  0  0  0  0
  3  4  2  0  0  0  0
  4  5  1  0  0  0  0
  5  6  1  0  0  0  0
  1  6  1  0  0  0  0
  1  7  1  0  0  0  0
  7  8  1  0  0  0  0
  2  8  1  0  0  0  0
  7  9  1  1  0  0  0
  9 10  1  0  0  0  0
 10 11  2  0  0  0  0
  8 12  2  0  0  0  0
 10 13  1  0  0  0  0
  4 14  1  0  0  0  0
 13 15  1  0  0  0  0
  1 16  1  6  0  0  0
 15 17  2  0  0  0  0
 17 18  1  0  0  0  0
 18 19  1  0  0  0  0
 19 20  2  0  0  0  0
 15 20  1  0  0  0  0
 13 21  2  0  0  0  0
  3 22  1  0  0  0  0
 22 23  1  0  0  0  0
 22 24  2  0  0  0  0
 19 25  1  0  0  0  0
 14 26  1  0  0  0  0
 26 27  1  0  0  0  0
 27 28  1  0  0  0  0
 27 29  2  0  0  0  0
 21 30  1  0  0  0  0
 30 31  1  0  0  0  0
M  CHG  1  23  -1
M  END

>  <ACTIVITY>
5.00
$$$$
3498

  Mrv0541 05041708492D          

 32 33  0  0  1  0            999 V2000
   19.2756  -10.5160    0.0000 C   0  0  2  0  0  0  0  0  0  0  0  0
   19.2756  -11.3410    0.0000 N   0  0  0  0  0  0  0  0  0  0  0  0
   19.9769  -11.7536    0.0000 C   0  0  0  0  0  0  0  0  0  0  0  0
   20.6782  -11.3410    0.0000 C   0  0  0  0  0  0  0  0  0  0  0  0
   20.6782  -10.5160    0.0000 C   0  0  0  0  0  0  0  0  0  0  0  0
   19.9769  -10.1035    0.0000 S   0  0  0  0  0  0  0  0  0  0  0  0
   18.4506  -10.5160    0.0000 C   0  0  1  0  0  0  0  0  0  0  0  0
   18.4506  -11.3410    0.0000 C   0  0  0  0  0  0  0  0  0  0  0  0
   17.7079  -10.1035    0.0000 N   0  0  0  0  0  0  0  0  0  0  0  0
   17.0066  -10.5160    0.0000 C   0  0  0  0  0  0  0  0  0  0  0  0
   17.0066  -11.3410    0.0000 O   0  0  0  0  0  0  0  0  0  0  0  0
   17.7079  -11.7536    0.0000 O   0  0  0  0  0  0  0  0  0  0  0  0
   16.3053  -10.1035    0.0000 C   0  0  0  0  0  0  0  0  0  0  0  0
   21.4207  -11.7536    0.0000 C   0  0  0  0  0  0  0  0  0  0  0  0
   15.5628  -10.5160    0.0000 C   0  0  0  0  0  0  0  0  0  0  0  0
   19.2756   -9.6909    0.0000 H   0  0  0  0  0  0  0  0  0  0  0  0
   14.9440  -10.0209    0.0000 C   0  0  0  0  0  0  0  0  0  0  0  0
   14.2428  -10.4747    0.0000 S   0  0  0  0  0  0  0  0  0  0  0  0
   14.4903  -11.2998    0.0000 C   0  0  0  0  0  0  0  0  0  0  0  0
   15.3153  -11.2998    0.0000 N   0  0  0  0  0  0  0  0  0  0  0  0
   16.3053   -9.2784    0.0000 N   0  0  0  0  0  0  0  0  0  0  0  0
   19.9769  -12.5786    0.0000 C   0  0  0  0  0  0  0  0  0  0  0  0
   20.6782  -12.9912    0.0000 O   0  5  0  0  0  0  0  0  0  0  0  0
   19.2344  -12.9912    0.0000 O   0  0  0  0  0  0  0  0  0  0  0  0
   13.9952  -11.9598    0.0000 N   0  0  0  0  0  0  0  0  0  0  0  0
   22.1309  -11.3277    0.0000 O   0  0  0  0  0  0  0  0  0  0  0  0
   22.8505  -11.7274    0.0000 C   0  0  0  0  0  0  0  0  0  0  0  0
   23.5487  -11.3086    0.0000 C   0  0  0  0  0  0  0  0  0  0  0  0
   22.8505  -12.5525    0.0000 O   0  0  0  0  0  0  0  0  0  0  0  0
   17.0121   -8.8741    0.0000 O   0  0  0  0  0  0  0  0  0  0  0  0
   17.0121   -8.0490    0.0000 C   0  0  0  0  0  0  0  0  0  0  0  0
   21.7605  -12.9926    0.0000 Na  0  3  0  0  0  0  0  0  0  0  0  0
  1  2  1  0  0  0  0
  2  3  1  0  0  0  0
  3  4  2  0  0  0  0
  4  5  1  0  0  0  0
  5  6  1  0  0  0  0
  1  6  1  0  0  0  0
  1  7  1  0  0  0  0
  7  8  1  0  0  0  0
  2  8  1  0  0  0  0
  7  9  1  1  0  0  0
  9 10  1  0  0  0  0
 10 11  2  0  0  0  0
  8 12  2  0  0  0  0
 10 13  1  0  0  0  0
  4 14  1  0  0  0  0
 13 15  1  0  0  0  0
  1 16  1  6  0  0  0
 15 17  2  0  0  0  0
 17 18  1  0  0  0  0
 18 19  1  0  0  0  0
 19 20  2  0  0  0  0
 15 20  1  0  0  0  0
 13 21  2  0  0  0  0
  3 22  1  0  0  0  0
 22 23  1  0  0  0  0
 22 24  2  0  0  0  0
 19 25  1  0  0  0  0
 14 26  1  0  0  0  0
 26 27  1  0  0  0  0
 27 28  1  0  0  0  0
 27 29  2  0  0  0  0
 21 30  1  0  0  0  0
 30 31  1  0  0  0  0
M  CHG  2  23  -1  32   1
M  END

>  <ACTIVITY>
5.00
$$$$
209807

  Mrv0541 05041708492D          

 29 31  0  0  1  0            999 V2000
   13.3092   -3.1472    0.0000 C   0  0  2  0  0  0  0  0  0  0  0  0
   13.3092   -3.9723    0.0000 N   0  0  0  0  0  0  0  0  0  0  0  0
   14.0237   -4.3848    0.0000 C   0  0  0  0  0  0  0  0  0  0  0  0
   14.7382   -3.9723    0.0000 C   0  0  0  0  0  0  0  0  0  0  0  0
   14.7382   -3.1472    0.0000 C   0  0  0  0  0  0  0  0  0  0  0  0
   14.0237   -2.7347    0.0000 S   0  0  0  0  0  0  0  0  0  0  0  0
   12.4840   -3.1472    0.0000 C   0  0  1  0  0  0  0  0  0  0  0  0
   12.4840   -3.9723    0.0000 C   0  0  0  0  0  0  0  0  0  0  0  0
   11.7696   -2.7347    0.0000 N   0  0  0  0  0  0  0  0  0  0  0  0
   11.0550   -3.1472    0.0000 C   0  0  0  0  0  0  0  0  0  0  0  0
   11.0550   -3.9723    0.0000 O   0  0  0  0  0  0  0  0  0  0  0  0
   11.7696   -4.3848    0.0000 O   0  0  0  0  0  0  0  0  0  0  0  0
   10.3406   -2.7347    0.0000 C   0  0  0  0  0  0  0  0  0  0  0  0
   15.4637   -4.3914    0.0000 C   0  0  0  0  0  0  0  0  0  0  0  0
   14.0237   -5.2097    0.0000 C   0  0  0  0  0  0  0  0  0  0  0  0
   13.2992   -5.6280    0.0000 O   0  0  0  0  0  0  0  0  0  0  0  0
   14.7282   -5.6166    0.0000 O   0  0  0  0  0  0  0  0  0  0  0  0
    9.6144   -3.1542    0.0000 C   0  0  0  0  0  0  0  0  0  0  0  0
   13.3092   -2.3215    0.0000 H   0  0  0  0  0  0  0  0  0  0  0  0
   16.1811   -3.9773    0.0000 O   0  0  0  0  0  0  0  0  0  0  0  0
   16.8954   -4.3899    0.0000 C   0  0  0  0  0  0  0  0  0  0  0  0
    8.9470   -2.6693    0.0000 S   0  0  0  0  0  0  0  0  0  0  0  0
    8.2796   -3.1542    0.0000 C   0  0  0  0  0  0  0  0  0  0  0  0
    8.5345   -3.9388    0.0000 C   0  0  0  0  0  0  0  0  0  0  0  0
    9.3595   -3.9388    0.0000 C   0  0  0  0  0  0  0  0  0  0  0  0
   17.6100   -3.9776    0.0000 N   0  0  0  0  0  0  0  0  0  0  0  0
   16.8952   -5.2149    0.0000 O   0  0  0  0  0  0  0  0  0  0  0  0
   12.6976   -2.3504    0.0000 O   0  0  0  0  0  0  0  0  0  0  0  0
   12.2851   -1.6359    0.0000 C   0  0  0  0  0  0  0  0  0  0  0  0
  1  2  1  0  0  0  0
  2  3  1  0  0  0  0
  3  4  2  0  0  0  0
  4  5  1  0  0  0  0
  5  6  1  0  0  0  0
  1  6  1  0  0  0  0
  1  7  1  0  0  0  0
  7  8  1  0  0  0  0
  2  8  1  0  0  0  0
  7  9  1  1  0  0  0
  9 10  1  0  0  0  0
 10 11  2  0  0  0  0
  8 12  2  0  0  0  0
 10 13  1  0  0  0  0
  4 14  1  0  0  0  0
  3 15  1  0  0  0  0
 15 16  2  0  0  0  0
 15 17  1  0  0  0  0
 13 18  1  0  0  0  0
  1 19  1  6  0  0  0
 14 20  1  0  0  0  0
 20 21  1  0  0  0  0
 25 18  2  0  0  0  0
 22 18  1  0  0  0  0
 22 23  1  0  0  0  0
 23 24  2  0  0  0  0
 24 25  1  0  0  0  0
 21 26  1  0  0  0  0
 21 27  2  0  0  0  0
  7 28  1  0  0  0  0
 28 29  1  0  0  0  0
M  END

>  <ACTIVITY>
5.00
$$$$
3501
 
  Mrv0541 05041708492D          
 
 30 31  0  0  1  0            999 V2000
   16.7683   -9.2973    0.0000 C   0  0  2  0  0  0  0  0  0  0  0  0
   16.7683  -10.1223    0.0000 N   0  0  0  0  0  0  0  0  0  0  0  0
   17.4828  -10.5346    0.0000 C   0  0  0  0  0  0  0  0  0  0  0  0
   18.1972  -10.1223    0.0000 C   0  0  0  0  0  0  0  0  0  0  0  0
   18.1972   -9.2973    0.0000 C   0  0  0  0  0  0  0  0  0  0  0  0
   17.4828   -8.8849    0.0000 S   0  0  0  0  0  0  0  0  0  0  0  0
   15.9434   -9.2973    0.0000 C   0  0  1  0  0  0  0  0  0  0  0  0
   15.9434  -10.1223    0.0000 C   0  0  0  0  0  0  0  0  0  0  0  0
   15.2291   -8.8849    0.0000 N   0  0  0  0  0  0  0  0  0  0  0  0
   14.5147   -9.2973    0.0000 C   0  0  0  0  0  0  0  0  0  0  0  0
   14.5147  -10.1223    0.0000 O   0  0  0  0  0  0  0  0  0  0  0  0
   15.2291  -10.5346    0.0000 O   0  0  0  0  0  0  0  0  0  0  0  0
   13.8003   -8.8849    0.0000 C   0  0  0  0  0  0  0  0  0  0  0  0
   18.9225  -10.5413    0.0000 C   0  0  0  0  0  0  0  0  0  0  0  0
   17.4828  -11.3594    0.0000 C   0  0  0  0  0  0  0  0  0  0  0  0
   16.7584  -11.7777    0.0000 O   0  0  0  0  0  0  0  0  0  0  0  0
   18.1871  -11.7662    0.0000 O   0  5  0  0  0  0  0  0  0  0  0  0
   16.7683   -8.4716    0.0000 H   0  0  0  0  0  0  0  0  0  0  0  0
   15.9434   -7.9772    0.0000 O   0  0  0  0  0  0  0  0  0  0  0  0
   16.6562   -7.5655    0.0000 C   0  0  0  0  0  0  0  0  0  0  0  0
   19.6403  -10.1272    0.0000 O   0  0  0  0  0  0  0  0  0  0  0  0
   20.3659  -10.5466    0.0000 C   0  0  0  0  0  0  0  0  0  0  0  0
   21.0800  -10.1347    0.0000 N   0  0  0  0  0  0  0  0  0  0  0  0
   20.3657  -11.3991    0.0000 O   0  0  0  0  0  0  0  0  0  0  0  0
   13.0797   -9.3006    0.0000 C   0  0  0  0  0  0  0  0  0  0  0  0
   12.4003   -8.7966    0.0000 S   0  0  0  0  0  0  0  0  0  0  0  0
   11.7122   -9.2859    0.0000 C   0  0  0  0  0  0  0  0  0  0  0  0
   11.9649  -10.0916    0.0000 C   0  0  0  0  0  0  0  0  0  0  0  0
   12.8092  -10.1002    0.0000 C   0  0  0  0  0  0  0  0  0  0  0  0
   19.0793  -11.7607    0.0000 Na  0  3  0  0  0  0  0  0  0  0  0  0
  1  2  1  0  0  0  0
  2  3  1  0  0  0  0
  3  4  2  0  0  0  0
  4  5  1  0  0  0  0
  5  6  1  0  0  0  0
  1  6  1  0  0  0  0
  1  7  1  0  0  0  0
  7  8  1  0  0  0  0
  2  8  1  0  0  0  0
  7  9  1  1  0  0  0
  9 10  1  0  0  0  0
 10 11  2  0  0  0  0
  8 12  2  0  0  0  0
 10 13  1  0  0  0  0
  4 14  1  0  0  0  0
  3 15  1  0  0  0  0
 15 16  2  0  0  0  0
 15 17  1  0  0  0  0
  1 18  1  6  0  0  0
  7 19  1  6  0  0  0
 19 20  1  0  0  0  0
 14 21  1  0  0  0  0
 21 22  1  0  0  0  0
 22 23  1  0  0  0  0
 22 24  2  0  0  0  0
 13 25  1  0  0  0  0
 25 26  1  0  0  0  0
 26 27  1  0  0  0  0
 27 28  2  0  0  0  0
 28 29  1  0  0  0  0
 25 29  2  0  0  0  0
M  CHG  2  17  -1  30   1
M  END

>  <ACTIVITY>
5.00
$$$$
53655

  Mrv0541 05041708492D          

 29 31  0  0  1  0            999 V2000
   13.3092   -3.1472    0.0000 C   0  0  2  0  0  0  0  0  0  0  0  0
   13.3092   -3.9723    0.0000 N   0  0  0  0  0  0  0  0  0  0  0  0
   14.0237   -4.3848    0.0000 C   0  0  0  0  0  0  0  0  0  0  0  0
   14.7382   -3.9723    0.0000 C   0  0  0  0  0  0  0  0  0  0  0  0
   14.7382   -3.1472    0.0000 C   0  0  0  0  0  0  0  0  0  0  0  0
   14.0237   -2.7347    0.0000 S   0  0  0  0  0  0  0  0  0  0  0  0
   12.4840   -3.1472    0.0000 C   0  0  1  0  0  0  0  0  0  0  0  0
   12.4840   -3.9723    0.0000 C   0  0  0  0  0  0  0  0  0  0  0  0
   11.7696   -2.7347    0.0000 N   0  0  0  0  0  0  0  0  0  0  0  0
   11.0550   -3.1472    0.0000 C   0  0  0  0  0  0  0  0  0  0  0  0
   11.0550   -3.9723    0.0000 O   0  0  0  0  0  0  0  0  0  0  0  0
   11.7696   -4.3848    0.0000 O   0  0  0  0  0  0  0  0  0  0  0  0
   10.3406   -2.7347    0.0000 C   0  0  0  0  0  0  0  0  0  0  0  0
   15.4637   -4.3914    0.0000 C   0  0  0  0  0  0  0  0  0  0  0  0
   14.0237   -5.2097    0.0000 C   0  0  0  0  0  0  0  0  0  0  0  0
   13.2992   -5.6280    0.0000 O   0  0  0  0  0  0  0  0  0  0  0  0
   14.7282   -5.6166    0.0000 O   0  5  0  0  0  0  0  0  0  0  0  0
    9.6144   -3.1542    0.0000 C   0  0  0  0  0  0  0  0  0  0  0  0
   13.3092   -2.3215    0.0000 H   0  0  0  0  0  0  0  0  0  0  0  0
   16.1811   -3.9773    0.0000 O   0  0  0  0  0  0  0  0  0  0  0  0
   16.8954   -4.3899    0.0000 C   0  0  0  0  0  0  0  0  0  0  0  0
    8.9470   -2.6693    0.0000 S   0  0  0  0  0  0  0  0  0  0  0  0
    8.2796   -3.1542    0.0000 C   0  0  0  0  0  0  0  0  0  0  0  0
    8.5345   -3.9388    0.0000 C   0  0  0  0  0  0  0  0  0  0  0  0
    9.3595   -3.9388    0.0000 C   0  0  0  0  0  0  0  0  0  0  0  0
   17.6100   -3.9776    0.0000 N   0  0  0  0  0  0  0  0  0  0  0  0
   16.8952   -5.2149    0.0000 O   0  0  0  0  0  0  0  0  0  0  0  0
   12.6976   -2.3504    0.0000 O   0  0  0  0  0  0  0  0  0  0  0  0
   12.2851   -1.6359    0.0000 C   0  0  0  0  0  0  0  0  0  0  0  0
  1  2  1  0  0  0  0
  2  3  1  0  0  0  0
  3  4  2  0  0  0  0
  4  5  1  0  0  0  0
  5  6  1  0  0  0  0
  1  6  1  0  0  0  0
  1  7  1  0  0  0  0
  7  8  1  0  0  0  0
  2  8  1  0  0  0  0
  7  9  1  1  0  0  0
  9 10  1  0  0  0  0
 10 11  2  0  0  0  0
  8 12  2  0  0  0  0
 10 13  1  0  0  0  0
  4 14  1  0  0  0  0
  3 15  1  0  0  0  0
 15 16  2  0  0  0  0
 15 17  1  0  0  0  0
 13 18  1  0  0  0  0
  1 19  1  6  0  0  0
 14 20  1  0  0  0  0
 20 21  1  0  0  0  0
 25 18  2  0  0  0  0
 22 18  1  0  0  0  0
 22 23  1  0  0  0  0
 23 24  2  0  0  0  0
 24 25  1  0  0  0  0
 21 26  1  0  0  0  0
 21 27  2  0  0  0  0
  7 28  1  0  0  0  0
 28 29  1  0  0  0  0
M  CHG  1  17  -1
M  END

>  <ACTIVITY>
5.00
$$$$
3508

  Mrv0541 05041708492D          

 38 41  0  0  1  0            999 V2000
   19.3051  -11.3438    0.0000 C   0  0  2  0  0  0  0  0  0  0  0  0
   19.3051  -12.1688    0.0000 N   0  0  0  0  0  0  0  0  0  0  0  0
   20.0063  -12.5813    0.0000 C   0  0  0  0  0  0  0  0  0  0  0  0
   20.7076  -12.1688    0.0000 C   0  0  0  0  0  0  0  0  0  0  0  0
   20.7076  -11.3438    0.0000 C   0  0  0  0  0  0  0  0  0  0  0  0
   20.0063  -10.9313    0.0000 S   0  0  0  0  0  0  0  0  0  0  0  0
   18.4801  -11.3438    0.0000 C   0  0  1  0  0  0  0  0  0  0  0  0
   18.4801  -12.1688    0.0000 C   0  0  0  0  0  0  0  0  0  0  0  0
   17.7376  -10.9313    0.0000 N   0  0  0  0  0  0  0  0  0  0  0  0
   17.0363  -11.3438    0.0000 C   0  0  0  0  0  0  0  0  0  0  0  0
   17.0363  -12.1688    0.0000 O   0  0  0  0  0  0  0  0  0  0  0  0
   17.7376  -12.5813    0.0000 O   0  0  0  0  0  0  0  0  0  0  0  0
   16.3351  -10.9313    0.0000 C   0  0  0  0  0  0  0  0  0  0  0  0
   21.4501  -12.5813    0.0000 C   0  0  0  0  0  0  0  0  0  0  0  0
   15.5926  -11.3438    0.0000 C   0  0  0  0  0  0  0  0  0  0  0  0
   19.3051  -10.5188    0.0000 H   0  0  0  0  0  0  0  0  0  0  0  0
   14.9739  -10.8488    0.0000 C   0  0  0  0  0  0  0  0  0  0  0  0
   14.2726  -11.3026    0.0000 S   0  0  0  0  0  0  0  0  0  0  0  0
   14.5201  -12.1276    0.0000 C   0  0  0  0  0  0  0  0  0  0  0  0
   15.3451  -12.1276    0.0000 N   0  0  0  0  0  0  0  0  0  0  0  0
   16.3351  -10.1063    0.0000 N   0  0  0  0  0  0  0  0  0  0  0  0
   20.0063  -13.4063    0.0000 C   0  0  0  0  0  0  0  0  0  0  0  0
   20.7076  -13.8188    0.0000 O   0  5  0  0  0  0  0  0  0  0  0  0
   19.2638  -13.8188    0.0000 O   0  0  0  0  0  0  0  0  0  0  0  0
   14.0251  -12.7875    0.0000 N   0  0  0  0  0  0  0  0  0  0  0  0
   22.1513  -12.1276    0.0000 N   0  3  0  0  0  0  0  0  0  0  0  0
   22.8526  -12.5400    0.0000 C   0  0  0  0  0  0  0  0  0  0  0  0
   23.5538  -12.1276    0.0000 C   0  0  0  0  0  0  0  0  0  0  0  0
   23.5538  -11.3026    0.0000 C   0  0  0  0  0  0  0  0  0  0  0  0
   22.8526  -10.8900    0.0000 C   0  0  0  0  0  0  0  0  0  0  0  0
   22.1513  -11.3026    0.0000 C   0  0  0  0  0  0  0  0  0  0  0  0
   17.0363   -9.6938    0.0000 O   0  0  0  0  0  0  0  0  0  0  0  0
   17.0363   -8.8688    0.0000 C   0  0  0  0  0  0  0  0  0  0  0  0
   17.7508   -8.4563    0.0000 C   0  0  0  0  0  0  0  0  0  0  0  0
   17.7508   -7.6313    0.0000 O   0  0  0  0  0  0  0  0  0  0  0  0
   18.4653   -8.8688    0.0000 O   0  0  0  0  0  0  0  0  0  0  0  0
   16.4530   -8.2854    0.0000 C   0  0  0  0  0  0  0  0  0  0  0  0
   16.3219   -9.2813    0.0000 C   0  0  0  0  0  0  0  0  0  0  0  0
  1  2  1  0  0  0  0
  2  3  1  0  0  0  0
  3  4  2  0  0  0  0
  4  5  1  0  0  0  0
  5  6  1  0  0  0  0
  1  6  1  0  0  0  0
  1  7  1  0  0  0  0
  7  8  1  0  0  0  0
  2  8  1  0  0  0  0
  7  9  1  1  0  0  0
  9 10  1  0  0  0  0
 10 11  2  0  0  0  0
  8 12  2  0  0  0  0
 10 13  1  0  0  0  0
  4 14  1  0  0  0  0
 13 15  1  0  0  0  0
  1 16  1  6  0  0  0
 15 17  2  0  0  0  0
 17 18  1  0  0  0  0
 18 19  1  0  0  0  0
 19 20  2  0  0  0  0
 15 20  1  0  0  0  0
 13 21  2  0  0  0  0
  3 22  1  0  0  0  0
 22 23  1  0  0  0  0
 22 24  2  0  0  0  0
 19 25  1  0  0  0  0
 14 26  1  0  0  0  0
 26 27  2  0  0  0  0
 27 28  1  0  0  0  0
 28 29  2  0  0  0  0
 29 30  1  0  0  0  0
 30 31  2  0  0  0  0
 26 31  1  0  0  0  0
 21 32  1  0  0  0  0
 32 33  1  0  0  0  0
 33 34  1  0  0  0  0
 34 35  2  0  0  0  0
 34 36  1  0  0  0  0
 33 37  1  0  0  0  0
 33 38  1  0  0  0  0
M  CHG  2  23  -1  26   1
M  END

>  <ACTIVITY>
5.00
$$$$
3509

  Mrv0541 05041708492D          

 43 41  0  0  1  0            999 V2000
   14.4293   -5.7549    0.0000 C   0  0  2  0  0  0  0  0  0  0  0  0
   14.4293   -6.5799    0.0000 N   0  0  0  0  0  0  0  0  0  0  0  0
   15.1304   -6.9924    0.0000 C   0  0  0  0  0  0  0  0  0  0  0  0
   15.8318   -6.5799    0.0000 C   0  0  0  0  0  0  0  0  0  0  0  0
   15.8318   -5.7549    0.0000 C   0  0  0  0  0  0  0  0  0  0  0  0
   15.1304   -5.3424    0.0000 S   0  0  0  0  0  0  0  0  0  0  0  0
   13.6043   -5.7549    0.0000 C   0  0  1  0  0  0  0  0  0  0  0  0
   13.6043   -6.5799    0.0000 C   0  0  0  0  0  0  0  0  0  0  0  0
   12.8618   -5.3424    0.0000 N   0  0  0  0  0  0  0  0  0  0  0  0
   12.1604   -5.7549    0.0000 C   0  0  0  0  0  0  0  0  0  0  0  0
   12.1604   -6.5799    0.0000 O   0  0  0  0  0  0  0  0  0  0  0  0
   12.8618   -6.9924    0.0000 O   0  0  0  0  0  0  0  0  0  0  0  0
   11.4593   -5.3424    0.0000 C   0  0  0  0  0  0  0  0  0  0  0  0
   16.5742   -6.9924    0.0000 C   0  0  0  0  0  0  0  0  0  0  0  0
   10.7167   -5.7549    0.0000 C   0  0  0  0  0  0  0  0  0  0  0  0
   14.4293   -4.9299    0.0000 H   0  0  0  0  0  0  0  0  0  0  0  0
   10.0980   -5.2599    0.0000 C   0  0  0  0  0  0  0  0  0  0  0  0
    9.3968   -5.7137    0.0000 S   0  0  0  0  0  0  0  0  0  0  0  0
    9.6442   -6.5387    0.0000 C   0  0  0  0  0  0  0  0  0  0  0  0
   10.4693   -6.5387    0.0000 N   0  0  0  0  0  0  0  0  0  0  0  0
   11.4593   -4.5174    0.0000 N   0  0  0  0  0  0  0  0  0  0  0  0
   15.1304   -7.8174    0.0000 C   0  0  0  0  0  0  0  0  0  0  0  0
   15.8318   -8.2299    0.0000 O   0  5  0  0  0  0  0  0  0  0  0  0
   14.3879   -8.2299    0.0000 O   0  0  0  0  0  0  0  0  0  0  0  0
    9.1492   -7.1986    0.0000 N   0  0  0  0  0  0  0  0  0  0  0  0
   17.2754   -6.5387    0.0000 N   0  3  0  0  0  0  0  0  0  0  0  0
   17.9768   -6.9511    0.0000 C   0  0  0  0  0  0  0  0  0  0  0  0
   18.6779   -6.5387    0.0000 C   0  0  0  0  0  0  0  0  0  0  0  0
   18.6779   -5.7137    0.0000 C   0  0  0  0  0  0  0  0  0  0  0  0
   17.9768   -5.3011    0.0000 C   0  0  0  0  0  0  0  0  0  0  0  0
   17.2754   -5.7137    0.0000 C   0  0  0  0  0  0  0  0  0  0  0  0
   12.1604   -4.1049    0.0000 O   0  0  0  0  0  0  0  0  0  0  0  0
   12.1604   -3.2799    0.0000 C   0  0  0  0  0  0  0  0  0  0  0  0
   12.8749   -2.8674    0.0000 C   0  0  0  0  0  0  0  0  0  0  0  0
   12.8749   -2.0424    0.0000 O   0  0  0  0  0  0  0  0  0  0  0  0
   13.5894   -3.2799    0.0000 O   0  0  0  0  0  0  0  0  0  0  0  0
   11.5771   -2.6964    0.0000 C   0  0  0  0  0  0  0  0  0  0  0  0
   11.4460   -3.6924    0.0000 C   0  0  0  0  0  0  0  0  0  0  0  0
   14.9278   -1.8529    0.0000 O   0  0  0  0  0  0  0  0  0  0  0  0
   16.1805   -1.8529    0.0000 O   0  0  0  0  0  0  0  0  0  0  0  0
   17.4071   -1.8529    0.0000 O   0  0  0  0  0  0  0  0  0  0  0  0
   16.6764   -2.6881    0.0000 O   0  0  0  0  0  0  0  0  0  0  0  0
   15.3193   -2.7663    0.0000 O   0  0  0  0  0  0  0  0  0  0  0  0
  1  2  1  0  0  0  0
  2  3  1  0  0  0  0
  3  4  2  0  0  0  0
  4  5  1  0  0  0  0
  5  6  1  0  0  0  0
  1  6  1  0  0  0  0
  1  7  1  0  0  0  0
  7  8  1  0  0  0  0
  2  8  1  0  0  0  0
  7  9  1  1  0  0  0
  9 10  1  0  0  0  0
 10 11  2  0  0  0  0
  8 12  2  0  0  0  0
 10 13  1  0  0  0  0
  4 14  1  0  0  0  0
 13 15  1  0  0  0  0
  1 16  1  6  0  0  0
 15 17  2  0  0  0  0
 17 18  1  0  0  0  0
 18 19  1  0  0  0  0
 19 20  2  0  0  0  0
 15 20  1  0  0  0  0
 13 21  2  0  0  0  0
  3 22  1  0  0  0  0
 22 23  1  0  0  0  0
 22 24  2  0  0  0  0
 19 25  1  0  0  0  0
 14 26  1  0  0  0  0
 26 27  2  0  0  0  0
 27 28  1  0  0  0  0
 28 29  2  0  0  0  0
 29 30  1  0  0  0  0
 30 31  2  0  0  0  0
 26 31  1  0  0  0  0
 21 32  1  0  0  0  0
 32 33  1  0  0  0  0
 33 34  1  0  0  0  0
 34 35  2  0  0  0  0
 34 36  1  0  0  0  0
 33 37  1  0  0  0  0
 33 38  1  0  0  0  0
M  CHG  2  23  -1  26   1
M  END

>  <ACTIVITY>
5.00
$$$$
53675

  Mrv0541 05041708492D          

 39 41  0  0  1  0            999 V2000
   14.4293   -5.7549    0.0000 C   0  0  2  0  0  0  0  0  0  0  0  0
   14.4293   -6.5799    0.0000 N   0  0  0  0  0  0  0  0  0  0  0  0
   15.1304   -6.9924    0.0000 C   0  0  0  0  0  0  0  0  0  0  0  0
   15.8318   -6.5799    0.0000 C   0  0  0  0  0  0  0  0  0  0  0  0
   15.8318   -5.7549    0.0000 C   0  0  0  0  0  0  0  0  0  0  0  0
   15.1304   -5.3424    0.0000 S   0  0  0  0  0  0  0  0  0  0  0  0
   13.6043   -5.7549    0.0000 C   0  0  1  0  0  0  0  0  0  0  0  0
   13.6043   -6.5799    0.0000 C   0  0  0  0  0  0  0  0  0  0  0  0
   12.8618   -5.3424    0.0000 N   0  0  0  0  0  0  0  0  0  0  0  0
   12.1604   -5.7549    0.0000 C   0  0  0  0  0  0  0  0  0  0  0  0
   12.1604   -6.5799    0.0000 O   0  0  0  0  0  0  0  0  0  0  0  0
   12.8618   -6.9924    0.0000 O   0  0  0  0  0  0  0  0  0  0  0  0
   11.4593   -5.3424    0.0000 C   0  0  0  0  0  0  0  0  0  0  0  0
   16.5742   -6.9924    0.0000 C   0  0  0  0  0  0  0  0  0  0  0  0
   10.7167   -5.7549    0.0000 C   0  0  0  0  0  0  0  0  0  0  0  0
   14.4293   -4.9299    0.0000 H   0  0  0  0  0  0  0  0  0  0  0  0
   10.0980   -5.2599    0.0000 C   0  0  0  0  0  0  0  0  0  0  0  0
    9.3968   -5.7137    0.0000 S   0  0  0  0  0  0  0  0  0  0  0  0
    9.6442   -6.5387    0.0000 C   0  0  0  0  0  0  0  0  0  0  0  0
   10.4693   -6.5387    0.0000 N   0  0  0  0  0  0  0  0  0  0  0  0
   11.4593   -4.5174    0.0000 N   0  0  0  0  0  0  0  0  0  0  0  0
   15.1304   -7.8174    0.0000 C   0  0  0  0  0  0  0  0  0  0  0  0
   15.8318   -8.2299    0.0000 O   0  5  0  0  0  0  0  0  0  0  0  0
   14.3879   -8.2299    0.0000 O   0  0  0  0  0  0  0  0  0  0  0  0
    9.1492   -7.1986    0.0000 N   0  0  0  0  0  0  0  0  0  0  0  0
   17.2754   -6.5387    0.0000 N   0  3  0  0  0  0  0  0  0  0  0  0
   17.9768   -6.9511    0.0000 C   0  0  0  0  0  0  0  0  0  0  0  0
   18.6779   -6.5387    0.0000 C   0  0  0  0  0  0  0  0  0  0  0  0
   18.6779   -5.7137    0.0000 C   0  0  0  0  0  0  0  0  0  0  0  0
   17.9768   -5.3011    0.0000 C   0  0  0  0  0  0  0  0  0  0  0  0
   17.2754   -5.7137    0.0000 C   0  0  0  0  0  0  0  0  0  0  0  0
   12.1604   -4.1049    0.0000 O   0  0  0  0  0  0  0  0  0  0  0  0
   12.1604   -3.2799    0.0000 C   0  0  0  0  0  0  0  0  0  0  0  0
   12.8749   -2.8674    0.0000 C   0  0  0  0  0  0  0  0  0  0  0  0
   12.8749   -2.0424    0.0000 O   0  0  0  0  0  0  0  0  0  0  0  0
   13.5894   -3.2799    0.0000 O   0  5  0  0  0  0  0  0  0  0  0  0
   11.5771   -2.6964    0.0000 C   0  0  0  0  0  0  0  0  0  0  0  0
   11.4460   -3.6924    0.0000 C   0  0  0  0  0  0  0  0  0  0  0  0
   14.9018   -3.3405    0.0000 Na  0  3  0  0  0  0  0  0  0  0  0  0
  1  2  1  0  0  0  0
  2  3  1  0  0  0  0
  3  4  2  0  0  0  0
  4  5  1  0  0  0  0
  5  6  1  0  0  0  0
  1  6  1  0  0  0  0
  1  7  1  0  0  0  0
  7  8  1  0  0  0  0
  2  8  1  0  0  0  0
  7  9  1  1  0  0  0
  9 10  1  0  0  0  0
 10 11  2  0  0  0  0
  8 12  2  0  0  0  0
 10 13  1  0  0  0  0
  4 14  1  0  0  0  0
 13 15  1  0  0  0  0
  1 16  1  6  0  0  0
 15 17  2  0  0  0  0
 17 18  1  0  0  0  0
 18 19  1  0  0  0  0
 19 20  2  0  0  0  0
 15 20  1  0  0  0  0
 13 21  2  0  0  0  0
  3 22  1  0  0  0  0
 22 23  1  0  0  0  0
 22 24  2  0  0  0  0
 19 25  1  0  0  0  0
 14 26  1  0  0  0  0
 26 27  2  0  0  0  0
 27 28  1  0  0  0  0
 28 29  2  0  0  0  0
 29 30  1  0  0  0  0
 30 31  2  0  0  0  0
 26 31  1  0  0  0  0
 21 32  1  0  0  0  0
 32 33  1  0  0  0  0
 33 34  1  0  0  0  0
 34 35  2  0  0  0  0
 34 36  1  0  0  0  0
 33 37  1  0  0  0  0
 33 38  1  0  0  0  0
M  CHG  4  23  -1  26   1  36  -1  39   1
M  END

>  <ACTIVITY>
5.00
$$$$
53676

  Mrv0541 05041708492D          

 38 41  0  0  1  0            999 V2000
   14.4293   -5.7549    0.0000 C   0  0  2  0  0  0  0  0  0  0  0  0
   14.4293   -6.5799    0.0000 N   0  0  0  0  0  0  0  0  0  0  0  0
   15.1304   -6.9924    0.0000 C   0  0  0  0  0  0  0  0  0  0  0  0
   15.8318   -6.5799    0.0000 C   0  0  0  0  0  0  0  0  0  0  0  0
   15.8318   -5.7549    0.0000 C   0  0  0  0  0  0  0  0  0  0  0  0
   15.1304   -5.3424    0.0000 S   0  0  0  0  0  0  0  0  0  0  0  0
   13.6043   -5.7549    0.0000 C   0  0  1  0  0  0  0  0  0  0  0  0
   13.6043   -6.5799    0.0000 C   0  0  0  0  0  0  0  0  0  0  0  0
   12.8618   -5.3424    0.0000 N   0  0  0  0  0  0  0  0  0  0  0  0
   12.1604   -5.7549    0.0000 C   0  0  0  0  0  0  0  0  0  0  0  0
   12.1604   -6.5799    0.0000 O   0  0  0  0  0  0  0  0  0  0  0  0
   12.8618   -6.9924    0.0000 O   0  0  0  0  0  0  0  0  0  0  0  0
   11.4593   -5.3424    0.0000 C   0  0  0  0  0  0  0  0  0  0  0  0
   16.5742   -6.9924    0.0000 C   0  0  0  0  0  0  0  0  0  0  0  0
   10.7167   -5.7549    0.0000 C   0  0  0  0  0  0  0  0  0  0  0  0
   14.4293   -4.9299    0.0000 H   0  0  0  0  0  0  0  0  0  0  0  0
   10.0980   -5.2599    0.0000 C   0  0  0  0  0  0  0  0  0  0  0  0
    9.3968   -5.7137    0.0000 S   0  0  0  0  0  0  0  0  0  0  0  0
    9.6442   -6.5387    0.0000 C   0  0  0  0  0  0  0  0  0  0  0  0
   10.4693   -6.5387    0.0000 N   0  0  0  0  0  0  0  0  0  0  0  0
   11.4593   -4.5174    0.0000 N   0  0  0  0  0  0  0  0  0  0  0  0
   15.1304   -7.8174    0.0000 C   0  0  0  0  0  0  0  0  0  0  0  0
   15.8318   -8.2299    0.0000 O   0  5  0  0  0  0  0  0  0  0  0  0
   14.3879   -8.2299    0.0000 O   0  0  0  0  0  0  0  0  0  0  0  0
    9.1492   -7.1986    0.0000 N   0  0  0  0  0  0  0  0  0  0  0  0
   17.2754   -6.5387    0.0000 N   0  3  0  0  0  0  0  0  0  0  0  0
   17.9768   -6.9511    0.0000 C   0  0  0  0  0  0  0  0  0  0  0  0
   18.6779   -6.5387    0.0000 C   0  0  0  0  0  0  0  0  0  0  0  0
   18.6779   -5.7137    0.0000 C   0  0  0  0  0  0  0  0  0  0  0  0
   17.9768   -5.3011    0.0000 C   0  0  0  0  0  0  0  0  0  0  0  0
   17.2754   -5.7137    0.0000 C   0  0  0  0  0  0  0  0  0  0  0  0
   12.1604   -4.1049    0.0000 O   0  0  0  0  0  0  0  0  0  0  0  0
   12.1604   -3.2799    0.0000 C   0  0  0  0  0  0  0  0  0  0  0  0
   12.8749   -2.8674    0.0000 C   0  0  0  0  0  0  0  0  0  0  0  0
   12.8749   -2.0424    0.0000 O   0  0  0  0  0  0  0  0  0  0  0  0
   13.5894   -3.2799    0.0000 O   0  5  0  0  0  0  0  0  0  0  0  0
   11.5771   -2.6964    0.0000 C   0  0  0  0  0  0  0  0  0  0  0  0
   11.4460   -3.6924    0.0000 C   0  0  0  0  0  0  0  0  0  0  0  0
  1  2  1  0  0  0  0
  2  3  1  0  0  0  0
  3  4  2  0  0  0  0
  4  5  1  0  0  0  0
  5  6  1  0  0  0  0
  1  6  1  0  0  0  0
  1  7  1  0  0  0  0
  7  8  1  0  0  0  0
  2  8  1  0  0  0  0
  7  9  1  1  0  0  0
  9 10  1  0  0  0  0
 10 11  2  0  0  0  0
  8 12  2  0  0  0  0
 10 13  1  0  0  0  0
  4 14  1  0  0  0  0
 13 15  1  0  0  0  0
  1 16  1  6  0  0  0
 15 17  2  0  0  0  0
 17 18  1  0  0  0  0
 18 19  1  0  0  0  0
 19 20  2  0  0  0  0
 15 20  1  0  0  0  0
 13 21  2  0  0  0  0
  3 22  1  0  0  0  0
 22 23  1  0  0  0  0
 22 24  2  0  0  0  0
 19 25  1  0  0  0  0
 14 26  1  0  0  0  0
 26 27  2  0  0  0  0
 27 28  1  0  0  0  0
 28 29  2  0  0  0  0
 29 30  1  0  0  0  0
 30 31  2  0  0  0  0
 26 31  1  0  0  0  0
 21 32  1  0  0  0  0
 32 33  1  0  0  0  0
 33 34  1  0  0  0  0
 34 35  2  0  0  0  0
 34 36  1  0  0  0  0
 33 37  1  0  0  0  0
 33 38  1  0  0  0  0
M  CHG  3  23  -1  26   1  36  -1
M  END

>  <ACTIVITY>
5.00
$$$$
85982

  Mrv0541 05041708492D          

 18 18  0  0  1  0            999 V2000
   10.9494   -3.5932    0.0000 C   0  0  0  0  0  0  0  0  0  0  0  0
   11.6639   -4.0057    0.0000 C   0  0  0  0  0  0  0  0  0  0  0  0
   11.6639   -4.8307    0.0000 C   0  0  2  0  0  0  0  0  0  0  0  0
   10.9494   -5.2432    0.0000 C   0  0  0  0  0  0  0  0  0  0  0  0
   10.2349   -4.8307    0.0000 N   0  0  0  0  0  0  0  0  0  0  0  0
   10.2349   -4.0057    0.0000 C   0  0  2  0  0  0  0  0  0  0  0  0
   10.4485   -5.6277    0.0000 C   0  0  0  0  0  0  0  0  0  0  0  0
   11.4504   -5.6277    0.0000 N   0  0  0  0  0  0  0  0  0  0  0  0
    9.5204   -3.5932    0.0000 C   0  0  0  0  0  0  0  0  0  0  0  0
    9.5204   -2.7681    0.0000 O   0  0  0  0  0  0  0  0  0  0  0  0
    8.8059   -4.0057    0.0000 N   0  0  0  0  0  0  0  0  0  0  0  0
    9.9461   -6.2822    0.0000 O   0  0  0  0  0  0  0  0  0  0  0  0
   12.1649   -6.0402    0.0000 O   0  0  0  0  0  0  0  0  0  0  0  0
   12.8793   -5.6277    0.0000 S   0  0  0  0  0  0  0  0  0  0  0  0
   13.5940   -6.0402    0.0000 O   0  5  0  0  0  0  0  0  0  0  0  0
   13.2918   -4.9132    0.0000 O   0  0  0  0  0  0  0  0  0  0  0  0
   12.4668   -4.9132    0.0000 O   0  0  0  0  0  0  0  0  0  0  0  0
   14.6415   -5.3577    0.0000 Na  0  3  0  0  0  0  0  0  0  0  0  0
  1  2  1  0  0  0  0
  2  3  1  0  0  0  0
  3  4  1  0  0  0  0
  4  5  1  0  0  0  0
  5  6  1  0  0  0  0
  6  1  1  0  0  0  0
  5  7  1  0  0  0  0
  3  8  1  1  0  0  0
  7  8  1  0  0  0  0
  6  9  1  6  0  0  0
  9 10  2  0  0  0  0
  9 11  1  0  0  0  0
  7 12  2  0  0  0  0
  8 13  1  0  0  0  0
 13 14  1  0  0  0  0
 14 15  1  0  0  0  0
 14 16  2  0  0  0  0
 14 17  2  0  0  0  0
M  CHG  2  15  -1  18   1
M  END

>  <ACTIVITY>
5.00
$$$$
85984

  Mrv0541 05041708492D          

 17 18  0  0  1  0            999 V2000
   10.9494   -3.5932    0.0000 C   0  0  0  0  0  0  0  0  0  0  0  0
   11.6639   -4.0057    0.0000 C   0  0  0  0  0  0  0  0  0  0  0  0
   11.6639   -4.8307    0.0000 C   0  0  2  0  0  0  0  0  0  0  0  0
   10.9494   -5.2432    0.0000 C   0  0  0  0  0  0  0  0  0  0  0  0
   10.2349   -4.8307    0.0000 N   0  0  0  0  0  0  0  0  0  0  0  0
   10.2349   -4.0057    0.0000 C   0  0  2  0  0  0  0  0  0  0  0  0
   10.4485   -5.6277    0.0000 C   0  0  0  0  0  0  0  0  0  0  0  0
   11.4504   -5.6277    0.0000 N   0  0  0  0  0  0  0  0  0  0  0  0
    9.5204   -3.5932    0.0000 C   0  0  0  0  0  0  0  0  0  0  0  0
    9.5204   -2.7681    0.0000 O   0  0  0  0  0  0  0  0  0  0  0  0
    8.8059   -4.0057    0.0000 N   0  0  0  0  0  0  0  0  0  0  0  0
    9.9461   -6.2822    0.0000 O   0  0  0  0  0  0  0  0  0  0  0  0
   12.1649   -6.0402    0.0000 O   0  0  0  0  0  0  0  0  0  0  0  0
   12.8793   -5.6277    0.0000 S   0  0  0  0  0  0  0  0  0  0  0  0
   13.5940   -6.0402    0.0000 O   0  0  0  0  0  0  0  0  0  0  0  0
   13.2918   -4.9132    0.0000 O   0  0  0  0  0  0  0  0  0  0  0  0
   12.4668   -4.9132    0.0000 O   0  0  0  0  0  0  0  0  0  0  0  0
  1  2  1  0  0  0  0
  2  3  1  0  0  0  0
  3  4  1  0  0  0  0
  4  5  1  0  0  0  0
  5  6  1  0  0  0  0
  6  1  1  0  0  0  0
  5  7  1  0  0  0  0
  3  8  1  1  0  0  0
  7  8  1  0  0  0  0
  6  9  1  6  0  0  0
  9 10  2  0  0  0  0
  9 11  1  0  0  0  0
  7 12  2  0  0  0  0
  8 13  1  0  0  0  0
 13 14  1  0  0  0  0
 14 15  1  0  0  0  0
 14 16  2  0  0  0  0
 14 17  2  0  0  0  0
M  END

>  <ACTIVITY>
5.00
$$$$
3542

  Mrv0541 05041708492D          

 29 30  0  0  0  0            999 V2000
   -3.5887   -1.3829    0.0000 S   0  0  0  0  0  0  0  0  0  0  0  0
   -4.2561   -1.8678    0.0000 C   0  0  0  0  0  0  0  0  0  0  0  0
   -4.0012   -2.6524    0.0000 C   0  0  0  0  0  0  0  0  0  0  0  0
   -3.1762   -2.6524    0.0000 C   0  0  0  0  0  0  0  0  0  0  0  0
   -2.9212   -1.8678    0.0000 C   0  0  0  0  0  0  0  0  0  0  0  0
   -2.2068   -1.4553    0.0000 C   0  0  0  0  0  0  0  0  0  0  0  0
   -1.4923   -1.8678    0.0000 C   0  0  0  0  0  0  0  0  0  0  0  0
   -0.7778   -1.4553    0.0000 N   0  0  0  0  0  0  0  0  0  0  0  0
    0.0191   -0.8439    0.0000 C   0  0  0  0  0  0  0  0  0  0  0  0
    0.0191   -1.6689    0.0000 C   0  0  2  0  0  0  0  0  0  0  0  0
    0.8441   -0.8439    0.0000 N   0  0  0  0  0  0  0  0  0  0  0  0
    0.8441   -1.6689    0.0000 C   0  0  2  0  0  0  0  0  0  0  0  0
    1.5585   -0.4314    0.0000 C   0  0  0  0  0  0  0  0  0  0  0  0
    1.5585   -2.0814    0.0000 S   0  0  0  0  0  0  0  0  0  0  0  0
    2.2730   -1.6689    0.0000 C   0  0  0  0  0  0  0  0  0  0  0  0
    2.2730   -0.8439    0.0000 C   0  0  0  0  0  0  0  0  0  0  0  0
    2.9875   -0.4314    0.0000 C   0  0  0  0  0  0  0  0  0  0  0  0
    3.7019   -0.8439    0.0000 O   0  0  0  0  0  0  0  0  0  0  0  0
    4.4164   -0.4314    0.0000 C   0  0  0  0  0  0  0  0  0  0  0  0
    5.1309   -0.8439    0.0000 C   0  0  0  0  0  0  0  0  0  0  0  0
    1.5585    0.3936    0.0000 C   0  0  0  0  0  0  0  0  0  0  0  0
   -1.4923   -2.6928    0.0000 O   0  0  0  0  0  0  0  0  0  0  0  0
   -0.5643   -0.2605    0.0000 O   0  0  0  0  0  0  0  0  0  0  0  0
    0.8441    0.8061    0.0000 O   0  0  0  0  0  0  0  0  0  0  0  0
    2.2730    0.8061    0.0000 O   0  5  0  0  0  0  0  0  0  0  0  0
    4.4164    0.3936    0.0000 O   0  0  0  0  0  0  0  0  0  0  0  0
    0.8441   -2.4939    0.0000 H   0  0  0  0  0  0  0  0  0  0  0  0
    0.0191   -2.4939    0.0000 H   0  0  0  0  0  0  0  0  0  0  0  0
    3.3983    0.9268    0.0000 Na  0  3  0  0  0  0  0  0  0  0  0  0
  1  2  1  0  0  0  0
  1  5  1  0  0  0  0
  2  3  2  0  0  0  0
  3  4  1  0  0  0  0
  4  5  2  0  0  0  0
  5  6  1  0  0  0  0
  6  7  1  0  0  0  0
  7  8  1  0  0  0  0
  9 10  1  0  0  0  0
  9 11  1  0  0  0  0
 12 10  1  0  0  0  0
 13 11  1  0  0  0  0
 11 12  1  0  0  0  0
 12 14  1  0  0  0  0
 13 16  2  0  0  0  0
 14 15  1  0  0  0  0
 15 16  1  0  0  0  0
 16 17  1  0  0  0  0
 17 18  1  0  0  0  0
 18 19  1  0  0  0  0
 19 20  1  0  0  0  0
 13 21  1  0  0  0  0
  7 22  2  0  0  0  0
 10  8  1  6  0  0  0
  9 23  2  0  0  0  0
 21 24  2  0  0  0  0
 21 25  1  0  0  0  0
 19 26  2  0  0  0  0
 12 27  1  1  0  0  0
 10 28  1  1  0  0  0
M  CHG  2  25  -1  29   1
M  END

>  <ACTIVITY>
5.00
$$$$
124991

  Mrv0541 05041708492D          

 28 30  0  0  0  0            999 V2000
   -3.5887   -0.9989    0.0000 S   0  0  0  0  0  0  0  0  0  0  0  0
   -4.2561   -0.5140    0.0000 C   0  0  0  0  0  0  0  0  0  0  0  0
   -4.0012    0.2706    0.0000 C   0  0  0  0  0  0  0  0  0  0  0  0
   -3.1762    0.2706    0.0000 C   0  0  0  0  0  0  0  0  0  0  0  0
   -2.9212   -0.5140    0.0000 C   0  0  0  0  0  0  0  0  0  0  0  0
   -2.2068   -0.9265    0.0000 C   0  0  0  0  0  0  0  0  0  0  0  0
   -1.4923   -0.5140    0.0000 C   0  0  0  0  0  0  0  0  0  0  0  0
   -0.7778   -0.9265    0.0000 N   0  0  0  0  0  0  0  0  0  0  0  0
    0.0191   -1.5379    0.0000 C   0  0  0  0  0  0  0  0  0  0  0  0
    0.0191   -0.7129    0.0000 C   0  0  2  0  0  0  0  0  0  0  0  0
    0.8441   -1.5379    0.0000 N   0  0  0  0  0  0  0  0  0  0  0  0
    0.8441   -0.7129    0.0000 C   0  0  2  0  0  0  0  0  0  0  0  0
    1.5585   -1.9504    0.0000 C   0  0  0  0  0  0  0  0  0  0  0  0
    1.5585   -0.3004    0.0000 S   0  0  0  0  0  0  0  0  0  0  0  0
    2.2730   -0.7129    0.0000 C   0  0  0  0  0  0  0  0  0  0  0  0
    2.2730   -1.5379    0.0000 C   0  0  0  0  0  0  0  0  0  0  0  0
    2.9875   -1.9504    0.0000 C   0  0  0  0  0  0  0  0  0  0  0  0
    3.7019   -1.5379    0.0000 O   0  0  0  0  0  0  0  0  0  0  0  0
    4.4164   -1.9504    0.0000 C   0  0  0  0  0  0  0  0  0  0  0  0
    5.1309   -1.5379    0.0000 C   0  0  0  0  0  0  0  0  0  0  0  0
    1.5585   -2.7754    0.0000 C   0  0  0  0  0  0  0  0  0  0  0  0
   -1.4923    0.3110    0.0000 O   0  0  0  0  0  0  0  0  0  0  0  0
   -0.5643   -2.1213    0.0000 O   0  0  0  0  0  0  0  0  0  0  0  0
    0.8441   -3.1879    0.0000 O   0  0  0  0  0  0  0  0  0  0  0  0
    2.2730   -3.1879    0.0000 O   0  0  0  0  0  0  0  0  0  0  0  0
    4.4164   -2.7754    0.0000 O   0  0  0  0  0  0  0  0  0  0  0  0
    0.8441    0.1121    0.0000 H   0  0  0  0  0  0  0  0  0  0  0  0
    0.0191    0.1121    0.0000 H   0  0  0  0  0  0  0  0  0  0  0  0
  1  2  1  0  0  0  0
  1  5  1  0  0  0  0
  2  3  2  0  0  0  0
  3  4  1  0  0  0  0
  4  5  2  0  0  0  0
  5  6  1  0  0  0  0
  6  7  1  0  0  0  0
  7  8  1  0  0  0  0
  9 10  1  0  0  0  0
  9 11  1  0  0  0  0
 12 10  1  0  0  0  0
 13 11  1  0  0  0  0
 11 12  1  0  0  0  0
 12 14  1  0  0  0  0
 13 16  2  0  0  0  0
 14 15  1  0  0  0  0
 15 16  1  0  0  0  0
 16 17  1  0  0  0  0
 17 18  1  0  0  0  0
 18 19  1  0  0  0  0
 19 20  1  0  0  0  0
 13 21  1  0  0  0  0
  7 22  2  0  0  0  0
 10  8  1  1  0  0  0
  9 23  2  0  0  0  0
 21 24  2  0  0  0  0
 21 25  1  0  0  0  0
 19 26  2  0  0  0  0
 12 27  1  6  0  0  0
 10 28  1  6  0  0  0
M  END

>  <ACTIVITY>
5.00
$$$$
100241

  Mrv0541 05041708492D          

 24 27  0  0  0  0            999 V2000
    5.4125   -2.6750    0.0000 C   0  0  0  0  0  0  0  0  0  0  0  0
    4.7042   -3.9167    0.0000 N   0  0  0  0  0  0  0  0  0  0  0  0
    3.9875   -2.6792    0.0000 C   0  0  0  0  0  0  0  0  0  0  0  0
    3.9875   -3.5042    0.0000 C   0  0  0  0  0  0  0  0  0  0  0  0
    4.6917   -2.2667    0.0000 C   0  0  0  0  0  0  0  0  0  0  0  0
    5.4167   -3.5042    0.0000 C   0  0  0  0  0  0  0  0  0  0  0  0
    3.2667   -3.9250    0.0000 C   0  0  0  0  0  0  0  0  0  0  0  0
    2.5542   -3.5125    0.0000 C   0  0  0  0  0  0  0  0  0  0  0  0
    4.7042   -4.7417    0.0000 C   0  0  0  0  0  0  0  0  0  0  0  0
    3.2667   -2.2667    0.0000 C   0  0  0  0  0  0  0  0  0  0  0  0
    6.1250   -2.2542    0.0000 C   0  0  0  0  0  0  0  0  0  0  0  0
    2.5542   -2.6875    0.0000 C   0  0  0  0  0  0  0  0  0  0  0  0
    1.8417   -3.9250    0.0000 N   0  0  0  0  0  0  0  0  0  0  0  0
    4.2917   -5.4542    0.0000 C   0  0  0  0  0  0  0  0  0  0  0  0
    5.1167   -5.4542    0.0000 C   0  0  0  0  0  0  0  0  0  0  0  0
    4.6917   -1.4417    0.0000 O   0  0  0  0  0  0  0  0  0  0  0  0
    0.4167   -4.7417    0.0000 N   0  0  0  0  0  0  0  0  0  0  0  0
    6.1167   -1.4292    0.0000 O   0  0  0  0  0  0  0  0  0  0  0  0
    1.8417   -2.2750    0.0000 F   0  0  0  0  0  0  0  0  0  0  0  0
    6.8417   -2.6667    0.0000 O   0  0  0  0  0  0  0  0  0  0  0  0
    1.8500   -4.7417    0.0000 C   0  0  0  0  0  0  0  0  0  0  0  0
    1.1292   -3.5042    0.0000 C   0  0  0  0  0  0  0  0  0  0  0  0
    0.4167   -3.9167    0.0000 C   0  0  0  0  0  0  0  0  0  0  0  0
    1.1292   -5.1542    0.0000 C   0  0  0  0  0  0  0  0  0  0  0  0
  2  6  1  0  0  0  0
  3  5  1  0  0  0  0
  4  2  1  0  0  0  0
  5  1  1  0  0  0  0
  6  1  2  0  0  0  0
  7  4  2  0  0  0  0
  8  7  1  0  0  0  0
  9  2  1  0  0  0  0
 10  3  2  0  0  0  0
 11  1  1  0  0  0  0
 12 10  1  0  0  0  0
 13  8  1  0  0  0  0
 14  9  1  0  0  0  0
 15  9  1  0  0  0  0
 16  5  2  0  0  0  0
 17 23  1  0  0  0  0
 18 11  2  0  0  0  0
 19 12  1  0  0  0  0
 20 11  1  0  0  0  0
 21 13  1  0  0  0  0
 22 13  1  0  0  0  0
 23 22  1  0  0  0  0
 24 21  1  0  0  0  0
  3  4  1  0  0  0  0
 15 14  1  0  0  0  0
 12  8  2  0  0  0  0
 24 17  1  0  0  0  0
M  END

>  <ACTIVITY>
5.00
$$$$
59936

  Mrv0541 05041708502D          

 26 27  0  0  0  0            999 V2000
    7.6890   -4.1480    0.0000 C   0  0  0  0  0  0  0  0  0  0  0  0
    6.9729   -5.3969    0.0000 N   0  0  0  0  0  0  0  0  0  0  0  0
    6.2625   -4.1594    0.0000 C   0  0  0  0  0  0  0  0  0  0  0  0
    6.2625   -4.9844    0.0000 C   0  0  0  0  0  0  0  0  0  0  0  0
    6.9729   -3.7355    0.0000 C   0  0  0  0  0  0  0  0  0  0  0  0
    7.6948   -4.9730    0.0000 C   0  0  0  0  0  0  0  0  0  0  0  0
    5.5464   -5.4026    0.0000 C   0  0  0  0  0  0  0  0  0  0  0  0
    4.8359   -4.9901    0.0000 C   0  0  0  0  0  0  0  0  0  0  0  0
    6.9843   -6.2219    0.0000 C   0  0  0  0  0  0  0  0  0  0  0  0
    5.5464   -3.7469    0.0000 C   0  0  0  0  0  0  0  0  0  0  0  0
    8.3995   -3.7296    0.0000 C   0  0  0  0  0  0  0  0  0  0  0  0
    4.8359   -4.1594    0.0000 C   0  0  0  0  0  0  0  0  0  0  0  0
    4.1198   -5.4026    0.0000 N   0  0  0  0  0  0  0  0  0  0  0  0
    6.5776   -6.9324    0.0000 C   0  0  0  0  0  0  0  0  0  0  0  0
    7.4026   -6.9324    0.0000 C   0  0  0  0  0  0  0  0  0  0  0  0
    6.9557   -2.9105    0.0000 O   0  0  0  0  0  0  0  0  0  0  0  0
    2.6932   -6.2105    0.0000 N   0  0  0  0  0  0  0  0  0  0  0  0
    8.3937   -2.9046    0.0000 O   0  0  0  0  0  0  0  0  0  0  0  0
    4.1198   -3.7526    0.0000 F   0  0  0  0  0  0  0  0  0  0  0  0
    9.1214   -4.1307    0.0000 O   0  0  0  0  0  0  0  0  0  0  0  0
    3.4093   -4.9844    0.0000 C   0  0  0  0  0  0  0  0  0  0  0  0
    4.1198   -6.2219    0.0000 C   0  0  0  0  0  0  0  0  0  0  0  0
    3.3979   -6.6344    0.0000 C   0  0  0  0  0  0  0  0  0  0  0  0
    2.6932   -5.3855    0.0000 C   0  0  0  0  0  0  0  0  0  0  0  0
    5.5119   -6.3273    0.0000 Cl  0  0  0  0  0  0  0  0  0  0  0  0
    8.8464   -6.2421    0.0000 O   0  0  0  0  0  0  0  0  0  0  0  0
  2  6  1  0  0  0  0
  3  5  1  0  0  0  0
  4  2  1  0  0  0  0
  5  1  1  0  0  0  0
  6  1  2  0  0  0  0
  7  4  1  0  0  0  0
  8  7  2  0  0  0  0
  9  2  1  0  0  0  0
 10  3  1  0  0  0  0
 11  1  1  0  0  0  0
 12 10  2  0  0  0  0
 13  8  1  0  0  0  0
 14  9  1  0  0  0  0
 15  9  1  0  0  0  0
 16  5  2  0  0  0  0
 17 23  1  0  0  0  0
 18 11  2  0  0  0  0
 19 12  1  0  0  0  0
 20 11  1  0  0  0  0
 21 13  1  0  0  0  0
 22 13  1  0  0  0  0
 23 22  1  0  0  0  0
 24 21  1  0  0  0  0
  3  4  2  0  0  0  0
 15 14  1  0  0  0  0
 12  8  1  0  0  0  0
 24 17  1  0  0  0  0
M  END

>  <ACTIVITY>
5.00
$$$$
310388

  Mrv0541 05041708502D          

 25 27  0  0  0  0            999 V2000
    4.0906   -5.0589    0.0000 C   0  0  0  0  0  0  0  0  0  0  0  0
    3.3745   -6.3078    0.0000 N   0  0  0  0  0  0  0  0  0  0  0  0
    2.6641   -5.0703    0.0000 C   0  0  0  0  0  0  0  0  0  0  0  0
    2.6641   -5.8953    0.0000 C   0  0  0  0  0  0  0  0  0  0  0  0
    3.3745   -4.6464    0.0000 C   0  0  0  0  0  0  0  0  0  0  0  0
    4.0964   -5.8839    0.0000 C   0  0  0  0  0  0  0  0  0  0  0  0
    1.9480   -6.3136    0.0000 C   0  0  0  0  0  0  0  0  0  0  0  0
    1.2375   -5.9011    0.0000 C   0  0  0  0  0  0  0  0  0  0  0  0
    3.3859   -7.1328    0.0000 C   0  0  0  0  0  0  0  0  0  0  0  0
    1.9480   -4.6578    0.0000 C   0  0  0  0  0  0  0  0  0  0  0  0
    4.8011   -4.6406    0.0000 C   0  0  0  0  0  0  0  0  0  0  0  0
    1.2375   -5.0703    0.0000 C   0  0  0  0  0  0  0  0  0  0  0  0
    0.5214   -6.3136    0.0000 N   0  0  0  0  0  0  0  0  0  0  0  0
    2.9792   -7.8433    0.0000 C   0  0  0  0  0  0  0  0  0  0  0  0
    3.8042   -7.8433    0.0000 C   0  0  0  0  0  0  0  0  0  0  0  0
    3.3573   -3.8214    0.0000 O   0  0  0  0  0  0  0  0  0  0  0  0
   -0.9052   -7.1214    0.0000 N   0  0  0  0  0  0  0  0  0  0  0  0
    4.7953   -3.8156    0.0000 O   0  0  0  0  0  0  0  0  0  0  0  0
    0.5214   -4.6636    0.0000 F   0  0  0  0  0  0  0  0  0  0  0  0
    5.5230   -5.0417    0.0000 O   0  0  0  0  0  0  0  0  0  0  0  0
    1.9135   -7.2383    0.0000 Cl  0  0  0  0  0  0  0  0  0  0  0  0
   -0.1891   -5.8953    0.0000 C   0  0  0  0  0  0  0  0  0  0  0  0
    0.5214   -7.1328    0.0000 C   0  0  0  0  0  0  0  0  0  0  0  0
   -0.2005   -7.5453    0.0000 C   0  0  0  0  0  0  0  0  0  0  0  0
   -0.9052   -6.2964    0.0000 C   0  0  0  0  0  0  0  0  0  0  0  0
  2  6  1  0  0  0  0
  3  5  1  0  0  0  0
  4  2  1  0  0  0  0
  5  1  1  0  0  0  0
  6  1  2  0  0  0  0
  7  4  1  0  0  0  0
  8  7  2  0  0  0  0
  9  2  1  0  0  0  0
 10  3  1  0  0  0  0
 11  1  1  0  0  0  0
 12 10  2  0  0  0  0
 13  8  1  0  0  0  0
 14  9  1  0  0  0  0
 15  9  1  0  0  0  0
 16  5  2  0  0  0  0
 17 24  1  0  0  0  0
 18 11  2  0  0  0  0
 19 12  1  0  0  0  0
 20 11  1  0  0  0  0
 22 13  1  0  0  0  0
 23 13  1  0  0  0  0
 24 23  1  0  0  0  0
 25 22  1  0  0  0  0
  3  4  2  0  0  0  0
 15 14  1  0  0  0  0
 12  8  1  0  0  0  0
 25 17  1  0  0  0  0
M  END

>  <ACTIVITY>
5.00
$$$$
59938

  Mrv0541 05041708502D          

 26 27  0  0  0  0            999 V2000
    7.6890   -4.1480    0.0000 C   0  0  0  0  0  0  0  0  0  0  0  0
    6.9729   -5.3969    0.0000 N   0  0  0  0  0  0  0  0  0  0  0  0
    6.2625   -4.1594    0.0000 C   0  0  0  0  0  0  0  0  0  0  0  0
    6.2625   -4.9844    0.0000 C   0  0  0  0  0  0  0  0  0  0  0  0
    6.9729   -3.7355    0.0000 C   0  0  0  0  0  0  0  0  0  0  0  0
    7.6948   -4.9730    0.0000 C   0  0  0  0  0  0  0  0  0  0  0  0
    5.5464   -5.4026    0.0000 C   0  0  0  0  0  0  0  0  0  0  0  0
    4.8359   -4.9901    0.0000 C   0  0  0  0  0  0  0  0  0  0  0  0
    6.9843   -6.2219    0.0000 C   0  0  0  0  0  0  0  0  0  0  0  0
    5.5464   -3.7469    0.0000 C   0  0  0  0  0  0  0  0  0  0  0  0
    8.3995   -3.7296    0.0000 C   0  0  0  0  0  0  0  0  0  0  0  0
    4.8359   -4.1594    0.0000 C   0  0  0  0  0  0  0  0  0  0  0  0
    4.1198   -5.4026    0.0000 N   0  0  0  0  0  0  0  0  0  0  0  0
    6.5776   -6.9324    0.0000 C   0  0  0  0  0  0  0  0  0  0  0  0
    7.4026   -6.9324    0.0000 C   0  0  0  0  0  0  0  0  0  0  0  0
    6.9557   -2.9105    0.0000 O   0  0  0  0  0  0  0  0  0  0  0  0
    2.6932   -6.2105    0.0000 N   0  0  0  0  0  0  0  0  0  0  0  0
    8.3937   -2.9046    0.0000 O   0  0  0  0  0  0  0  0  0  0  0  0
    4.1198   -3.7526    0.0000 F   0  0  0  0  0  0  0  0  0  0  0  0
    9.1214   -4.1307    0.0000 O   0  0  0  0  0  0  0  0  0  0  0  0
    3.4093   -4.9844    0.0000 C   0  0  0  0  0  0  0  0  0  0  0  0
    4.1198   -6.2219    0.0000 C   0  0  0  0  0  0  0  0  0  0  0  0
    3.3979   -6.6344    0.0000 C   0  0  0  0  0  0  0  0  0  0  0  0
    2.6932   -5.3855    0.0000 C   0  0  0  0  0  0  0  0  0  0  0  0
    5.5119   -6.3273    0.0000 Cl  0  0  0  0  0  0  0  0  0  0  0  0
    8.8464   -6.2919    0.0000 Cl  0  0  0  0  0  0  0  0  0  0  0  0
  2  6  1  0  0  0  0
  3  5  1  0  0  0  0
  4  2  1  0  0  0  0
  5  1  1  0  0  0  0
  6  1  2  0  0  0  0
  7  4  1  0  0  0  0
  8  7  2  0  0  0  0
  9  2  1  0  0  0  0
 10  3  1  0  0  0  0
 11  1  1  0  0  0  0
 12 10  2  0  0  0  0
 13  8  1  0  0  0  0
 14  9  1  0  0  0  0
 15  9  1  0  0  0  0
 16  5  2  0  0  0  0
 17 23  1  0  0  0  0
 18 11  2  0  0  0  0
 19 12  1  0  0  0  0
 20 11  1  0  0  0  0
 21 13  1  0  0  0  0
 22 13  1  0  0  0  0
 23 22  1  0  0  0  0
 24 21  1  0  0  0  0
  3  4  2  0  0  0  0
 15 14  1  0  0  0  0
 12  8  1  0  0  0  0
 24 17  1  0  0  0  0
M  END

>  <ACTIVITY>
5.00
$$$$
404903

  Mrv0541 05041708502D          

 37 40  0  0  1  0            999 V2000
    9.2719  -13.6225    0.0000 C   0  0  0  0  0  0  0  0  0  0  0  0
    9.7621  -12.9484    0.0000 C   0  0  0  0  0  0  0  0  0  0  0  0
    9.2719  -12.3049    0.0000 C   0  0  1  0  0  0  0  0  0  0  0  0
    8.5059  -13.3774    0.0000 N   0  0  0  0  0  0  0  0  0  0  0  0
    8.5059  -12.5501    0.0000 C   0  0  1  0  0  0  0  0  0  0  0  0
    7.6479  -12.5501    0.0000 C   0  0  2  0  0  0  0  0  0  0  0  0
    7.6479  -13.3774    0.0000 C   0  0  0  0  0  0  0  0  0  0  0  0
    6.9432  -12.1517    0.0000 C   0  0  2  0  0  0  0  0  0  0  0  0
    6.9432  -11.3244    0.0000 O   0  0  0  0  0  0  0  0  0  0  0  0
    6.2385  -12.5501    0.0000 C   0  0  0  0  0  0  0  0  0  0  0  0
    7.0964  -13.9595    0.0000 O   0  0  0  0  0  0  0  0  0  0  0  0
    9.4557  -14.4191    0.0000 C   0  0  0  0  0  0  0  0  0  0  0  0
   10.2218  -14.6949    0.0000 O   0  0  0  0  0  0  0  0  0  0  0  0
    8.8429  -15.0013    0.0000 O   0  0  0  0  0  0  0  0  0  0  0  0
    9.5170  -11.5083    0.0000 C   0  0  0  0  0  0  0  0  0  0  0  0
   10.5894  -12.9484    0.0000 S   0  0  0  0  0  0  0  0  0  0  0  0
   10.9873  -13.6830    0.0000 C   0  0  2  0  0  0  0  0  0  0  0  0
   10.7277  -14.4661    0.0000 C   0  0  0  0  0  0  0  0  0  0  0  0
   11.4028  -14.9393    0.0000 N   0  0  0  0  0  0  0  0  0  0  0  0
   12.0437  -14.4456    0.0000 C   0  0  1  0  0  0  0  0  0  0  0  0
   11.8049  -13.6831    0.0000 C   0  0  0  0  0  0  0  0  0  0  0  0
   12.7466  -14.8770    0.0000 C   0  0  0  0  0  0  0  0  0  0  0  0
   12.7446  -15.6736    0.0000 O   0  0  0  0  0  0  0  0  0  0  0  0
   13.4830  -14.4499    0.0000 N   0  0  0  0  0  0  0  0  0  0  0  0
   13.4851  -13.6226    0.0000 C   0  0  0  0  0  0  0  0  0  0  0  0
   12.7507  -13.2224    0.0000 C   0  0  0  0  0  0  0  0  0  0  0  0
   12.7528  -12.3951    0.0000 C   0  0  0  0  0  0  0  0  0  0  0  0
   13.4893  -11.9680    0.0000 C   0  0  0  0  0  0  0  0  0  0  0  0
   14.1929  -12.3987    0.0000 C   0  0  0  0  0  0  0  0  0  0  0  0
   14.1908  -13.2260    0.0000 C   0  0  0  0  0  0  0  0  0  0  0  0
   14.8987  -11.9716    0.0000 C   0  0  0  0  0  0  0  0  0  0  0  0
   15.6330  -12.4024    0.0000 O   0  0  0  0  0  0  0  0  0  0  0  0
   14.9008  -11.1749    0.0000 O   0  0  0  0  0  0  0  0  0  0  0  0
    7.6786  -11.7228    0.0000 H   0  0  0  0  0  0  0  0  0  0  0  0
    8.5059  -11.7228    0.0000 H   0  0  0  0  0  0  0  0  0  0  0  0
   12.8380  -14.2334    0.0000 H   0  0  0  0  0  0  0  0  0  0  0  0
   10.1867  -13.8946    0.0000 H   0  0  0  0  0  0  0  0  0  0  0  0
  4  1  1  0  0  0  0
  2  1  2  0  0  0  0
 12  1  1  0  0  0  0
 16  2  1  0  0  0  0
  3  2  1  0  0  0  0
  5  3  1  0  0  0  0
  3 15  1  1  0  0  0
  5  4  1  0  0  0  0
  7  4  1  0  0  0  0
  6  5  1  0  0  0  0
  5 35  1  6  0  0  0
  8  6  1  0  0  0  0
  7  6  1  0  0  0  0
  6 34  1  1  0  0  0
 11  7  2  0  0  0  0
  8  9  1  1  0  0  0
 10  8  1  0  0  0  0
 13 12  2  0  0  0  0
 14 12  1  0  0  0  0
 17 16  1  1  0  0  0
 18 17  1  0  0  0  0
 21 17  1  0  0  0  0
 19 18  1  0  0  0  0
 20 19  1  0  0  0  0
 21 20  1  0  0  0  0
 20 22  1  1  0  0  0
 23 22  2  0  0  0  0
 24 22  1  0  0  0  0
 25 24  1  0  0  0  0
 26 25  2  0  0  0  0
 30 25  1  0  0  0  0
 27 26  1  0  0  0  0
 28 27  2  0  0  0  0
 29 28  1  0  0  0  0
 30 29  2  0  0  0  0
 31 29  1  0  0  0  0
 32 31  1  0  0  0  0
 33 31  2  0  0  0  0
 20 36  1  6  0  0  0
 17 37  1  6  0  0  0
M  END

>  <ACTIVITY>
5.00
$$$$
60071

  Mrv0541 05041708502D          

 37 40  0  0  1  0            999 V2000
    9.1720  -20.1607    0.0000 C   0  0  0  0  0  0  0  0  0  0  0  0
    9.6623  -19.4866    0.0000 C   0  0  0  0  0  0  0  0  0  0  0  0
    9.1720  -18.8432    0.0000 C   0  0  1  0  0  0  0  0  0  0  0  0
    8.4060  -19.9156    0.0000 N   0  0  0  0  0  0  0  0  0  0  0  0
    8.4060  -19.0883    0.0000 C   0  0  1  0  0  0  0  0  0  0  0  0
    7.5481  -19.0883    0.0000 C   0  0  2  0  0  0  0  0  0  0  0  0
    7.5481  -19.9156    0.0000 C   0  0  0  0  0  0  0  0  0  0  0  0
    6.8434  -18.6900    0.0000 C   0  0  2  0  0  0  0  0  0  0  0  0
    6.8434  -17.8627    0.0000 O   0  0  0  0  0  0  0  0  0  0  0  0
    6.1387  -19.0883    0.0000 C   0  0  0  0  0  0  0  0  0  0  0  0
    6.9966  -20.4978    0.0000 O   0  0  0  0  0  0  0  0  0  0  0  0
    9.3559  -20.9573    0.0000 C   0  0  0  0  0  0  0  0  0  0  0  0
   10.1219  -21.2331    0.0000 O   0  0  0  0  0  0  0  0  0  0  0  0
    8.7431  -21.5395    0.0000 O   0  5  0  0  0  0  0  0  0  0  0  0
    9.4172  -18.0466    0.0000 C   0  0  0  0  0  0  0  0  0  0  0  0
   10.4896  -19.4866    0.0000 S   0  0  0  0  0  0  0  0  0  0  0  0
   10.8875  -20.2212    0.0000 C   0  0  2  0  0  0  0  0  0  0  0  0
   10.6278  -21.0043    0.0000 C   0  0  0  0  0  0  0  0  0  0  0  0
   11.3029  -21.4775    0.0000 N   0  3  0  0  0  0  0  0  0  0  0  0
   11.9437  -20.9839    0.0000 C   0  0  1  0  0  0  0  0  0  0  0  0
   11.7051  -20.2214    0.0000 C   0  0  0  0  0  0  0  0  0  0  0  0
   12.6467  -21.4152    0.0000 C   0  0  0  0  0  0  0  0  0  0  0  0
   12.6446  -22.2119    0.0000 O   0  0  0  0  0  0  0  0  0  0  0  0
   13.3831  -20.9881    0.0000 N   0  0  0  0  0  0  0  0  0  0  0  0
   13.3852  -20.1608    0.0000 C   0  0  0  0  0  0  0  0  0  0  0  0
   12.6508  -19.7606    0.0000 C   0  0  0  0  0  0  0  0  0  0  0  0
   12.6529  -18.9334    0.0000 C   0  0  0  0  0  0  0  0  0  0  0  0
   13.3893  -18.5063    0.0000 C   0  0  0  0  0  0  0  0  0  0  0  0
   14.0930  -18.9370    0.0000 C   0  0  0  0  0  0  0  0  0  0  0  0
   14.0909  -19.7642    0.0000 C   0  0  0  0  0  0  0  0  0  0  0  0
   14.7988  -18.5098    0.0000 C   0  0  0  0  0  0  0  0  0  0  0  0
   15.5331  -18.9406    0.0000 O   0  5  0  0  0  0  0  0  0  0  0  0
   14.8008  -17.7132    0.0000 O   0  0  0  0  0  0  0  0  0  0  0  0
    7.5787  -18.2610    0.0000 H   0  0  0  0  0  0  0  0  0  0  0  0
    8.4060  -18.2610    0.0000 H   0  0  0  0  0  0  0  0  0  0  0  0
   12.7381  -20.7717    0.0000 H   0  0  0  0  0  0  0  0  0  0  0  0
   10.0868  -20.4328    0.0000 H   0  0  0  0  0  0  0  0  0  0  0  0
  4  1  1  0  0  0  0
  2  1  2  0  0  0  0
 12  1  1  0  0  0  0
 16  2  1  0  0  0  0
  3  2  1  0  0  0  0
  5  3  1  0  0  0  0
  3 15  1  1  0  0  0
  5  4  1  0  0  0  0
  7  4  1  0  0  0  0
  6  5  1  0  0  0  0
  5 35  1  6  0  0  0
  8  6  1  0  0  0  0
  7  6  1  0  0  0  0
  6 34  1  1  0  0  0
 11  7  2  0  0  0  0
  8  9  1  1  0  0  0
 10  8  1  0  0  0  0
 13 12  2  0  0  0  0
 14 12  1  0  0  0  0
 17 16  1  1  0  0  0
 18 17  1  0  0  0  0
 21 17  1  0  0  0  0
 19 18  1  0  0  0  0
 20 19  1  0  0  0  0
 21 20  1  0  0  0  0
 20 22  1  1  0  0  0
 23 22  2  0  0  0  0
 24 22  1  0  0  0  0
 25 24  1  0  0  0  0
 26 25  2  0  0  0  0
 30 25  1  0  0  0  0
 27 26  1  0  0  0  0
 28 27  2  0  0  0  0
 29 28  1  0  0  0  0
 30 29  2  0  0  0  0
 31 29  1  0  0  0  0
 32 31  1  0  0  0  0
 33 31  2  0  0  0  0
 20 36  1  6  0  0  0
 17 37  1  6  0  0  0
M  CHG  3  14  -1  19   1  32  -1
M  END

>  <ACTIVITY>
5.00
$$$$
60070

  Mrv0541 05041708502D          

 38 40  0  0  1  0            999 V2000
    9.1720  -20.1607    0.0000 C   0  0  0  0  0  0  0  0  0  0  0  0
    9.6623  -19.4866    0.0000 C   0  0  0  0  0  0  0  0  0  0  0  0
    9.1720  -18.8432    0.0000 C   0  0  1  0  0  0  0  0  0  0  0  0
    8.4060  -19.9156    0.0000 N   0  0  0  0  0  0  0  0  0  0  0  0
    8.4060  -19.0883    0.0000 C   0  0  1  0  0  0  0  0  0  0  0  0
    7.5481  -19.0883    0.0000 C   0  0  2  0  0  0  0  0  0  0  0  0
    7.5481  -19.9156    0.0000 C   0  0  0  0  0  0  0  0  0  0  0  0
    6.8434  -18.6900    0.0000 C   0  0  2  0  0  0  0  0  0  0  0  0
    6.8434  -17.8627    0.0000 O   0  0  0  0  0  0  0  0  0  0  0  0
    6.1387  -19.0883    0.0000 C   0  0  0  0  0  0  0  0  0  0  0  0
    6.9966  -20.4978    0.0000 O   0  0  0  0  0  0  0  0  0  0  0  0
    9.3559  -20.9573    0.0000 C   0  0  0  0  0  0  0  0  0  0  0  0
   10.1219  -21.2331    0.0000 O   0  0  0  0  0  0  0  0  0  0  0  0
    8.7431  -21.5395    0.0000 O   0  5  0  0  0  0  0  0  0  0  0  0
    9.4172  -18.0466    0.0000 C   0  0  0  0  0  0  0  0  0  0  0  0
   10.4896  -19.4866    0.0000 S   0  0  0  0  0  0  0  0  0  0  0  0
   10.8875  -20.2212    0.0000 C   0  0  2  0  0  0  0  0  0  0  0  0
   10.6278  -21.0043    0.0000 C   0  0  0  0  0  0  0  0  0  0  0  0
   11.3029  -21.4775    0.0000 N   0  3  0  0  0  0  0  0  0  0  0  0
   11.9437  -20.9839    0.0000 C   0  0  1  0  0  0  0  0  0  0  0  0
   11.7051  -20.2214    0.0000 C   0  0  0  0  0  0  0  0  0  0  0  0
   12.6467  -21.4152    0.0000 C   0  0  0  0  0  0  0  0  0  0  0  0
   12.6446  -22.2119    0.0000 O   0  0  0  0  0  0  0  0  0  0  0  0
   13.3831  -20.9881    0.0000 N   0  0  0  0  0  0  0  0  0  0  0  0
   13.3852  -20.1608    0.0000 C   0  0  0  0  0  0  0  0  0  0  0  0
   12.6508  -19.7606    0.0000 C   0  0  0  0  0  0  0  0  0  0  0  0
   12.6529  -18.9334    0.0000 C   0  0  0  0  0  0  0  0  0  0  0  0
   13.3893  -18.5063    0.0000 C   0  0  0  0  0  0  0  0  0  0  0  0
   14.0930  -18.9370    0.0000 C   0  0  0  0  0  0  0  0  0  0  0  0
   14.0909  -19.7642    0.0000 C   0  0  0  0  0  0  0  0  0  0  0  0
   14.7988  -18.5098    0.0000 C   0  0  0  0  0  0  0  0  0  0  0  0
   15.5331  -18.9406    0.0000 O   0  5  0  0  0  0  0  0  0  0  0  0
   14.8008  -17.7132    0.0000 O   0  0  0  0  0  0  0  0  0  0  0  0
    7.5787  -18.2610    0.0000 H   0  0  0  0  0  0  0  0  0  0  0  0
    8.4060  -18.2610    0.0000 H   0  0  0  0  0  0  0  0  0  0  0  0
   12.7381  -20.7717    0.0000 H   0  0  0  0  0  0  0  0  0  0  0  0
   10.0868  -20.4328    0.0000 H   0  0  0  0  0  0  0  0  0  0  0  0
   15.0604  -21.2501    0.0000 Na  0  3  0  0  0  0  0  0  0  0  0  0
  4  1  1  0  0  0  0
  2  1  2  0  0  0  0
 12  1  1  0  0  0  0
 16  2  1  0  0  0  0
  3  2  1  0  0  0  0
  5  3  1  0  0  0  0
  3 15  1  1  0  0  0
  5  4  1  0  0  0  0
  7  4  1  0  0  0  0
  6  5  1  0  0  0  0
  5 35  1  6  0  0  0
  8  6  1  0  0  0  0
  7  6  1  0  0  0  0
  6 34  1  1  0  0  0
 11  7  2  0  0  0  0
  8  9  1  1  0  0  0
 10  8  1  0  0  0  0
 13 12  2  0  0  0  0
 14 12  1  0  0  0  0
 17 16  1  1  0  0  0
 18 17  1  0  0  0  0
 21 17  1  0  0  0  0
 19 18  1  0  0  0  0
 20 19  1  0  0  0  0
 21 20  1  0  0  0  0
 20 22  1  1  0  0  0
 23 22  2  0  0  0  0
 24 22  1  0  0  0  0
 25 24  1  0  0  0  0
 26 25  2  0  0  0  0
 30 25  1  0  0  0  0
 27 26  1  0  0  0  0
 28 27  2  0  0  0  0
 29 28  1  0  0  0  0
 30 29  2  0  0  0  0
 31 29  1  0  0  0  0
 32 31  1  0  0  0  0
 33 31  2  0  0  0  0
 20 36  1  6  0  0  0
 17 37  1  6  0  0  0
M  CHG  4  14  -1  19   1  32  -1  38   1
M  END

>  <ACTIVITY>
5.00
$$$$
75616

  Mrv0541 05041708502D          

 34 36  0  0  0  0            999 V2000
    0.0171    1.3051    0.0000 O   0  0  0  0  0  0  0  0  0  0  0  0
   -0.6973    0.8926    0.0000 C   0  0  0  0  0  0  0  0  0  0  0  0
   -0.6973    0.0676    0.0000 C   0  0  1  0  0  0  0  0  0  0  0  0
    0.0171   -0.3449    0.0000 C   0  0  1  0  0  0  0  0  0  0  0  0
    0.7316    0.0676    0.0000 C   0  0  2  0  0  0  0  0  0  0  0  0
    0.7316    0.8926    0.0000 C   0  0  1  0  0  0  0  0  0  0  0  0
    1.4461    1.3051    0.0000 O   0  0  0  0  0  0  0  0  0  0  0  0
    1.4461   -0.3449    0.0000 O   0  0  0  0  0  0  0  0  0  0  0  0
    0.0171   -1.1699    0.0000 N   0  3  0  0  0  0  0  0  0  0  0  0
   -0.5662   -1.7533    0.0000 C   0  0  0  0  0  0  0  0  0  0  0  0
    2.1605    1.7176    0.0000 C   0  0  2  0  0  0  0  0  0  0  0  0
    2.8750    2.9552    0.0000 C   0  0  1  0  0  0  0  0  0  0  0  0
    2.1605    2.5427    0.0000 C   0  0  2  0  0  0  0  0  0  0  0  0
    2.8750    1.3051    0.0000 C   0  0  1  0  0  0  0  0  0  0  0  0
    3.5895    1.7176    0.0000 C   0  0  0  0  0  0  0  0  0  0  0  0
    3.5895    2.5427    0.0000 C   0  0  2  0  0  0  0  0  0  0  0  0
    2.8750    0.4801    0.0000 N   0  3  0  0  0  0  0  0  0  0  0  0
    4.3039    2.9552    0.0000 N   0  3  0  0  0  0  0  0  0  0  0  0
    1.4461    2.9552    0.0000 O   0  0  0  0  0  0  0  0  0  0  0  0
    2.8750    3.7802    0.0000 O   0  0  0  0  0  0  0  0  0  0  0  0
    3.5895    4.1926    0.0000 C   0  0  2  0  0  0  0  0  0  0  0  0
    4.3039    5.4302    0.0000 C   0  0  0  0  0  0  0  0  0  0  0  0
    3.5895    5.0176    0.0000 C   0  0  1  0  0  0  0  0  0  0  0  0
    4.3039    3.7801    0.0000 O   0  0  0  0  0  0  0  0  0  0  0  0
    5.0184    4.1926    0.0000 C   0  0  1  0  0  0  0  0  0  0  0  0
    5.0184    5.0176    0.0000 C   0  0  0  0  0  0  0  0  0  0  0  0
    2.8750    5.4301    0.0000 N   0  3  0  0  0  0  0  0  0  0  0  0
    5.7329    3.7801    0.0000 C   0  0  2  0  0  0  0  0  0  0  0  0
    5.7329    2.9551    0.0000 N   0  3  0  0  0  0  0  0  0  0  0  0
    6.4473    2.5426    0.0000 R   0  0  0  0  0  0  0  0  0  0  0  0
    6.4473    4.1926    0.0000 R   0  0  0  0  0  0  0  0  0  0  0  0
   -1.5223    0.0676    0.0000 O   0  0  0  0  0  0  0  0  0  0  0  0
   -0.9109   -0.7293    0.0000 C   0  0  0  0  0  0  0  0  0  0  0  0
    5.7329    4.6051    0.0000 H   0  0  0  0  0  0  0  0  0  0  0  0
  1  2  1  0  0  0  0
  1  6  1  0  0  0  0
  2  3  1  0  0  0  0
  3  4  1  0  0  0  0
  4  5  1  0  0  0  0
  5  6  1  0  0  0  0
  6  7  1  6  0  0  0
  5  8  1  6  0  0  0
  4  9  1  1  0  0  0
  9 10  1  0  0  0  0
 11  7  1  6  0  0  0
 13 11  1  0  0  0  0
 11 14  1  0  0  0  0
 12 13  1  0  0  0  0
 12 16  1  0  0  0  0
 14 15  1  0  0  0  0
 15 16  1  0  0  0  0
 14 17  1  1  0  0  0
 16 18  1  1  0  0  0
 13 19  1  1  0  0  0
 12 20  1  6  0  0  0
 23 21  1  0  0  0  0
 21 24  1  0  0  0  0
 22 23  1  0  0  0  0
 22 26  1  0  0  0  0
 25 24  1  0  0  0  0
 25 26  1  0  0  0  0
 23 27  1  6  0  0  0
 25 28  1  0  0  0  0
 28 29  1  0  0  0  0
 29 30  1  0  0  0  0
 28 31  1  1  0  0  0
  3 32  1  1  0  0  0
  3 33  1  6  0  0  0
 21 20  1  6  0  0  0
 25 34  1  6  0  0  0
M  CHG  5   9   1  17   1  18   1  27   1  29   1
M  END

>  <ACTIVITY>
5.00
$$$$
5312
 
  Mrv0541 05041708502D          
 
 39 40  0  0  1  0            999 V2000
   20.9162  -12.6530    0.0000 S   0  0  0  0  0  0  0  0  0  0  0  0
   20.9162  -11.8266    0.0000 O   0  0  0  0  0  0  0  0  0  0  0  0
   20.9162  -13.4382    0.0000 O   0  0  0  0  0  0  0  0  0  0  0  0
   21.7426  -12.6530    0.0000 O   0  0  0  0  0  0  0  0  0  0  0  0
   20.1310  -12.6530    0.0000 O   0  0  0  0  0  0  0  0  0  0  0  0
   12.3381  -10.9695    0.0000 C   0  0  0  0  0  0  0  0  0  0  0  0
   12.3381  -11.7945    0.0000 C   0  0  2  0  0  0  0  0  0  0  0  0
   13.0525  -12.2070    0.0000 C   0  0  1  0  0  0  0  0  0  0  0  0
   13.7670  -11.7945    0.0000 C   0  0  2  0  0  0  0  0  0  0  0  0
   13.7670  -10.9695    0.0000 C   0  0  2  0  0  0  0  0  0  0  0  0
   13.0525  -10.5570    0.0000 O   0  0  0  0  0  0  0  0  0  0  0  0
   14.4924  -10.5505    0.0000 O   0  0  0  0  0  0  0  0  0  0  0  0
   15.2069  -10.1380    0.0000 C   0  0  1  0  0  0  0  0  0  0  0  0
   15.9381  -10.5603    0.0000 C   0  0  1  0  0  0  0  0  0  0  0  0
   16.6526  -10.1478    0.0000 C   0  0  0  0  0  0  0  0  0  0  0  0
   16.6527   -9.3228    0.0000 C   0  0  1  0  0  0  0  0  0  0  0  0
   15.9215   -8.9007    0.0000 C   0  0  2  0  0  0  0  0  0  0  0  0
   15.2070   -9.3130    0.0000 C   0  0  2  0  0  0  0  0  0  0  0  0
   14.4924  -12.2135    0.0000 O   0  0  0  0  0  0  0  0  0  0  0  0
   12.1246  -12.5913    0.0000 C   0  0  0  0  0  0  0  0  0  0  0  0
   11.5131  -11.7945    0.0000 O   0  0  0  0  0  0  0  0  0  0  0  0
   13.0525  -13.0318    0.0000 N   0  0  0  0  0  0  0  0  0  0  0  0
   12.3282  -13.4501    0.0000 C   0  0  0  0  0  0  0  0  0  0  0  0
   15.9379  -11.3819    0.0000 N   0  0  0  0  0  0  0  0  0  0  0  0
   14.5093   -8.9100    0.0000 O   0  0  0  0  0  0  0  0  0  0  0  0
   17.3810   -8.9024    0.0000 N   0  0  0  0  0  0  0  0  0  0  0  0
   15.9217   -8.0821    0.0000 O   0  0  0  0  0  0  0  0  0  0  0  0
   16.6400   -7.6675    0.0000 C   0  0  1  0  0  0  0  0  0  0  0  0
   17.3462   -8.0755    0.0000 O   0  0  0  0  0  0  0  0  0  0  0  0
   18.0608   -7.6632    0.0000 C   0  0  1  0  0  0  0  0  0  0  0  0
   18.0610   -6.8382    0.0000 C   0  0  0  0  0  0  0  0  0  0  0  0
   17.3547   -6.4302    0.0000 C   0  0  0  0  0  0  0  0  0  0  0  0
   16.6402   -6.8425    0.0000 C   0  0  1  0  0  0  0  0  0  0  0  0
   18.7861   -8.0821    0.0000 C   0  0  1  0  0  0  0  0  0  0  0  0
   19.4907   -7.6755    0.0000 R#  0  0  0  0  0  0  0  0  0  0  0  0
   18.7860   -8.9069    0.0000 N   0  0  0  0  0  0  0  0  0  0  0  0
   19.4906   -9.3140    0.0000 R#  0  0  0  0  0  0  0  0  0  0  0  0
   15.9177   -6.4251    0.0000 N   0  0  0  0  0  0  0  0  0  0  0  0
   18.6441   -7.0798    0.0000 H   0  0  0  0  0  0  0  0  0  0  0  0
  1  2  2  0  0  0  0
  1  3  2  0  0  0  0
  1  4  1  0  0  0  0
  1  5  1  0  0  0  0
  6  7  1  0  0  0  0
  7  8  1  0  0  0  0
  8  9  1  0  0  0  0
  9 10  1  0  0  0  0
 10 11  1  0  0  0  0
  6 11  1  0  0  0  0
 10 12  1  6  0  0  0
 13 12  1  6  0  0  0
 13 14  1  0  0  0  0
 14 15  1  0  0  0  0
 15 16  1  0  0  0  0
 16 17  1  0  0  0  0
 17 18  1  0  0  0  0
 13 18  1  0  0  0  0
  9 19  1  6  0  0  0
  7 20  1  6  0  0  0
  7 21  1  1  0  0  0
  8 22  1  1  0  0  0
 22 23  1  0  0  0  0
 14 24  1  1  0  0  0
 18 25  1  1  0  0  0
 16 26  1  1  0  0  0
 17 27  1  6  0  0  0
 28 27  1  6  0  0  0
 28 29  1  0  0  0  0
 29 30  1  0  0  0  0
 30 31  1  0  0  0  0
 31 32  1  0  0  0  0
 32 33  1  0  0  0  0
 28 33  1  0  0  0  0
 30 34  1  0  0  0  0
 34 35  1  1  0  0  0
 34 36  1  0  0  0  0
 36 37  1  0  0  0  0
 33 38  1  6  0  0  0
 30 39  1  6  0  0  0
M  RGP  2  35   1  37   2
M  END

>  <ACTIVITY>
5.00
$$$$
81283
 
  Mrv0541 05041708502D          
 
 32 34  0  0  1  0            999 V2000
   13.3307  -11.7969    0.0000 C   0  0  0  0  0  0  0  0  0  0  0  0
   13.3307  -12.6219    0.0000 C   0  0  2  0  0  0  0  0  0  0  0  0
   14.0451  -13.0344    0.0000 C   0  0  1  0  0  0  0  0  0  0  0  0
   14.7596  -12.6219    0.0000 C   0  0  2  0  0  0  0  0  0  0  0  0
   14.7596  -11.7969    0.0000 C   0  0  2  0  0  0  0  0  0  0  0  0
   14.0451  -11.3845    0.0000 O   0  0  0  0  0  0  0  0  0  0  0  0
   15.4851  -11.3780    0.0000 O   0  0  0  0  0  0  0  0  0  0  0  0
   16.1995  -10.9655    0.0000 C   0  0  1  0  0  0  0  0  0  0  0  0
   16.9307  -11.3877    0.0000 C   0  0  1  0  0  0  0  0  0  0  0  0
   17.6452  -10.9753    0.0000 C   0  0  0  0  0  0  0  0  0  0  0  0
   17.6453  -10.1503    0.0000 C   0  0  1  0  0  0  0  0  0  0  0  0
   16.9141   -9.7281    0.0000 C   0  0  2  0  0  0  0  0  0  0  0  0
   16.1997  -10.1405    0.0000 C   0  0  2  0  0  0  0  0  0  0  0  0
   15.4851  -13.0409    0.0000 O   0  0  0  0  0  0  0  0  0  0  0  0
   13.1173  -13.4188    0.0000 C   0  0  0  0  0  0  0  0  0  0  0  0
   12.5057  -12.6219    0.0000 O   0  0  0  0  0  0  0  0  0  0  0  0
   14.0451  -13.8593    0.0000 N   0  0  0  0  0  0  0  0  0  0  0  0
   13.3208  -14.2776    0.0000 C   0  0  0  0  0  0  0  0  0  0  0  0
   16.9306  -12.2093    0.0000 N   0  0  0  0  0  0  0  0  0  0  0  0
   15.5019   -9.7375    0.0000 O   0  0  0  0  0  0  0  0  0  0  0  0
   18.3736   -9.7298    0.0000 N   0  0  0  0  0  0  0  0  0  0  0  0
   16.9142   -8.9096    0.0000 O   0  0  0  0  0  0  0  0  0  0  0  0
   17.6326   -8.4949    0.0000 C   0  0  1  0  0  0  0  0  0  0  0  0
   18.3389   -8.9029    0.0000 O   0  0  0  0  0  0  0  0  0  0  0  0
   19.0534   -8.4906    0.0000 C   0  0  1  0  0  0  0  0  0  0  0  0
   19.0536   -7.6657    0.0000 C   0  0  0  0  0  0  0  0  0  0  0  0
   18.3474   -7.2576    0.0000 C   0  0  0  0  0  0  0  0  0  0  0  0
   17.6328   -7.6699    0.0000 C   0  0  1  0  0  0  0  0  0  0  0  0
   19.7787   -8.9096    0.0000 C   0  0  0  0  0  0  0  0  0  0  0  0
   16.9103   -7.2525    0.0000 N   0  0  0  0  0  0  0  0  0  0  0  0
   19.7784   -9.7514    0.0000 N   0  0  0  0  0  0  0  0  0  0  0  0
   20.5024  -10.1697    0.0000 C   0  0  0  0  0  0  0  0  0  0  0  0
  1  2  1  0  0  0  0
  2  3  1  0  0  0  0
  3  4  1  0  0  0  0
  4  5  1  0  0  0  0
  5  6  1  0  0  0  0
  1  6  1  0  0  0  0
  5  7  1  6  0  0  0
  8  7  1  6  0  0  0
  8  9  1  0  0  0  0
  9 10  1  0  0  0  0
 10 11  1  0  0  0  0
 11 12  1  0  0  0  0
 12 13  1  0  0  0  0
  8 13  1  0  0  0  0
  4 14  1  6  0  0  0
  2 15  1  6  0  0  0
  2 16  1  1  0  0  0
  3 17  1  1  0  0  0
 17 18  1  0  0  0  0
  9 19  1  1  0  0  0
 13 20  1  1  0  0  0
 11 21  1  1  0  0  0
 12 22  1  6  0  0  0
 23 22  1  6  0  0  0
 23 24  1  0  0  0  0
 24 25  1  0  0  0  0
 25 26  1  0  0  0  0
 26 27  1  0  0  0  0
 27 28  1  0  0  0  0
 23 28  1  0  0  0  0
 25 29  1  1  0  0  0
 28 30  1  6  0  0  0
 29 31  1  0  0  0  0
 31 32  1  0  0  0  0
M  END

>  <ACTIVITY>
5.00
$$$$
81279
 
  Mrv0541 05041708502D          
 
 31 33  0  0  1  0            999 V2000
   13.2468  -12.1672    0.0000 C   0  0  0  0  0  0  0  0  0  0  0  0
   13.2468  -12.9921    0.0000 C   0  0  2  0  0  0  0  0  0  0  0  0
   13.9612  -13.4046    0.0000 C   0  0  1  0  0  0  0  0  0  0  0  0
   14.6757  -12.9921    0.0000 C   0  0  2  0  0  0  0  0  0  0  0  0
   14.6757  -12.1672    0.0000 C   0  0  2  0  0  0  0  0  0  0  0  0
   13.9612  -11.7547    0.0000 O   0  0  0  0  0  0  0  0  0  0  0  0
   15.4011  -11.7482    0.0000 O   0  0  0  0  0  0  0  0  0  0  0  0
   16.1156  -11.3357    0.0000 C   0  0  1  0  0  0  0  0  0  0  0  0
   16.8467  -11.7579    0.0000 C   0  0  1  0  0  0  0  0  0  0  0  0
   17.5612  -11.3455    0.0000 C   0  0  0  0  0  0  0  0  0  0  0  0
   17.5613  -10.5205    0.0000 C   0  0  1  0  0  0  0  0  0  0  0  0
   16.8302  -10.0983    0.0000 C   0  0  2  0  0  0  0  0  0  0  0  0
   16.1157  -10.5107    0.0000 C   0  0  2  0  0  0  0  0  0  0  0  0
   15.4011  -13.4111    0.0000 O   0  0  0  0  0  0  0  0  0  0  0  0
   13.9612  -14.2295    0.0000 O   0  0  0  0  0  0  0  0  0  0  0  0
   16.8466  -12.5795    0.0000 N   0  0  0  0  0  0  0  0  0  0  0  0
   15.4180  -10.1077    0.0000 O   0  0  0  0  0  0  0  0  0  0  0  0
   18.2896  -10.1000    0.0000 N   0  0  0  0  0  0  0  0  0  0  0  0
   16.8303   -9.2798    0.0000 O   0  0  0  0  0  0  0  0  0  0  0  0
   17.5486   -8.8651    0.0000 C   0  0  1  0  0  0  0  0  0  0  0  0
   18.2549   -9.2732    0.0000 O   0  0  0  0  0  0  0  0  0  0  0  0
   18.9694   -8.8608    0.0000 C   0  0  1  0  0  0  0  0  0  0  0  0
   18.9696   -8.0359    0.0000 C   0  0  2  0  0  0  0  0  0  0  0  0
   18.2634   -7.6278    0.0000 C   0  0  1  0  0  0  0  0  0  0  0  0
   17.5488   -8.0401    0.0000 C   0  0  1  0  0  0  0  0  0  0  0  0
   19.6947   -9.2798    0.0000 C   0  0  0  0  0  0  0  0  0  0  0  0
   16.8264   -7.6227    0.0000 N   0  0  0  0  0  0  0  0  0  0  0  0
   12.5509  -13.3936    0.0000 O   0  0  0  0  0  0  0  0  0  0  0  0
   18.2636   -6.8165    0.0000 O   0  0  0  0  0  0  0  0  0  0  0  0
   19.6718   -7.6309    0.0000 O   0  0  0  0  0  0  0  0  0  0  0  0
   19.6944  -10.1215    0.0000 O   0  0  0  0  0  0  0  0  0  0  0  0
  1  2  1  0  0  0  0
  2  3  1  0  0  0  0
  3  4  1  0  0  0  0
  4  5  1  0  0  0  0
  5  6  1  0  0  0  0
  1  6  1  0  0  0  0
  5  7  1  6  0  0  0
  8  7  1  6  0  0  0
  8  9  1  0  0  0  0
  9 10  1  0  0  0  0
 10 11  1  0  0  0  0
 11 12  1  0  0  0  0
 12 13  1  0  0  0  0
  8 13  1  0  0  0  0
  4 14  1  6  0  0  0
  3 15  1  1  0  0  0
  9 16  1  1  0  0  0
 13 17  1  1  0  0  0
 11 18  1  1  0  0  0
 12 19  1  6  0  0  0
 20 19  1  6  0  0  0
 20 21  1  0  0  0  0
 21 22  1  0  0  0  0
 22 23  1  0  0  0  0
 23 24  1  0  0  0  0
 24 25  1  0  0  0  0
 20 25  1  0  0  0  0
 22 26  1  1  0  0  0
 25 27  1  6  0  0  0
  2 28  1  6  0  0  0
 24 29  1  1  0  0  0
 23 30  1  6  0  0  0
 26 31  1  0  0  0  0
M  END

>  <ACTIVITY>
5.00
$$$$
81280
 
  Mrv0541 05041708502D          
 
 33 35  0  0  1  0            999 V2000
   20.9366  -11.7961    0.0000 C   0  0  0  0  0  0  0  0  0  0  0  0
   20.9366  -12.6211    0.0000 C   0  0  2  0  0  0  0  0  0  0  0  0
   21.6510  -13.0336    0.0000 C   0  0  1  0  0  0  0  0  0  0  0  0
   22.3654  -12.6211    0.0000 C   0  0  2  0  0  0  0  0  0  0  0  0
   22.3654  -11.7961    0.0000 C   0  0  2  0  0  0  0  0  0  0  0  0
   21.6510  -11.3836    0.0000 O   0  0  0  0  0  0  0  0  0  0  0  0
   23.0909  -11.3771    0.0000 O   0  0  0  0  0  0  0  0  0  0  0  0
   23.8054  -10.9646    0.0000 C   0  0  1  0  0  0  0  0  0  0  0  0
   24.5365  -11.3869    0.0000 C   0  0  1  0  0  0  0  0  0  0  0  0
   25.2510  -10.9744    0.0000 C   0  0  0  0  0  0  0  0  0  0  0  0
   25.2511  -10.1494    0.0000 C   0  0  1  0  0  0  0  0  0  0  0  0
   24.5200   -9.7272    0.0000 C   0  0  2  0  0  0  0  0  0  0  0  0
   23.8055  -10.1396    0.0000 C   0  0  2  0  0  0  0  0  0  0  0  0
   23.0909  -13.0401    0.0000 O   0  0  0  0  0  0  0  0  0  0  0  0
   20.7230  -13.4179    0.0000 C   0  0  0  0  0  0  0  0  0  0  0  0
   20.1115  -12.6211    0.0000 O   0  0  0  0  0  0  0  0  0  0  0  0
   21.6510  -13.8585    0.0000 N   0  0  0  0  0  0  0  0  0  0  0  0
   20.9266  -14.2768    0.0000 C   0  0  0  0  0  0  0  0  0  0  0  0
   24.5364  -12.2085    0.0000 N   0  0  0  0  0  0  0  0  0  0  0  0
   23.1078   -9.7366    0.0000 O   0  0  0  0  0  0  0  0  0  0  0  0
   25.9794   -9.7289    0.0000 N   0  0  0  0  0  0  0  0  0  0  0  0
   24.5201   -8.9087    0.0000 O   0  0  0  0  0  0  0  0  0  0  0  0
   25.2385   -8.4940    0.0000 C   0  0  1  0  0  0  0  0  0  0  0  0
   25.9447   -8.9021    0.0000 O   0  0  0  0  0  0  0  0  0  0  0  0
   26.6593   -8.4897    0.0000 C   0  0  1  0  0  0  0  0  0  0  0  0
   26.6595   -7.6648    0.0000 C   0  0  2  0  0  0  0  0  0  0  0  0
   25.9532   -7.2568    0.0000 C   0  0  1  0  0  0  0  0  0  0  0  0
   25.2387   -7.6690    0.0000 C   0  0  1  0  0  0  0  0  0  0  0  0
   27.3846   -8.9087    0.0000 C   0  0  0  0  0  0  0  0  0  0  0  0
   27.3844   -9.7335    0.0000 O   0  0  0  0  0  0  0  0  0  0  0  0
   24.5162   -7.2516    0.0000 N   0  0  0  0  0  0  0  0  0  0  0  0
   25.9535   -6.4479    0.0000 O   0  0  0  0  0  0  0  0  0  0  0  0
   27.3835   -7.2472    0.0000 O   0  0  0  0  0  0  0  0  0  0  0  0
  1  2  1  0  0  0  0
  2  3  1  0  0  0  0
  3  4  1  0  0  0  0
  4  5  1  0  0  0  0
  5  6  1  0  0  0  0
  1  6  1  0  0  0  0
  5  7  1  6  0  0  0
  8  7  1  6  0  0  0
  8  9  1  0  0  0  0
  9 10  1  0  0  0  0
 10 11  1  0  0  0  0
 11 12  1  0  0  0  0
 12 13  1  0  0  0  0
  8 13  1  0  0  0  0
  4 14  1  6  0  0  0
  2 15  1  6  0  0  0
  2 16  1  1  0  0  0
  3 17  1  1  0  0  0
 17 18  1  0  0  0  0
  9 19  1  1  0  0  0
 13 20  1  1  0  0  0
 11 21  1  1  0  0  0
 12 22  1  6  0  0  0
 23 22  1  6  0  0  0
 23 24  1  0  0  0  0
 24 25  1  0  0  0  0
 25 26  1  0  0  0  0
 26 27  1  0  0  0  0
 27 28  1  0  0  0  0
 23 28  1  0  0  0  0
 25 29  1  1  0  0  0
 29 30  1  0  0  0  0
 28 31  1  6  0  0  0
 27 32  1  1  0  0  0
 26 33  1  6  0  0  0
M  END

>  <ACTIVITY>
5.00
$$$$
28417
 
  Mrv0541 05041708502D          
 
 34 36  0  0  1  0            999 V2000
    9.4050  -12.6637    0.0000 C   0  0  0  0  0  0  0  0  0  0  0  0
    9.4050  -13.4887    0.0000 C   0  0  2  0  0  0  0  0  0  0  0  0
   10.1194  -13.9012    0.0000 C   0  0  1  0  0  0  0  0  0  0  0  0
   10.8340  -13.4887    0.0000 C   0  0  2  0  0  0  0  0  0  0  0  0
   10.8340  -12.6637    0.0000 C   0  0  2  0  0  0  0  0  0  0  0  0
   10.1194  -12.2512    0.0000 O   0  0  0  0  0  0  0  0  0  0  0  0
   11.5594  -12.2448    0.0000 O   0  0  0  0  0  0  0  0  0  0  0  0
   12.2739  -11.8323    0.0000 C   0  0  1  0  0  0  0  0  0  0  0  0
   13.0051  -12.2545    0.0000 C   0  0  1  0  0  0  0  0  0  0  0  0
   13.7196  -11.8420    0.0000 C   0  0  0  0  0  0  0  0  0  0  0  0
   13.7197  -11.0170    0.0000 C   0  0  1  0  0  0  0  0  0  0  0  0
   12.9885  -10.5948    0.0000 C   0  0  2  0  0  0  0  0  0  0  0  0
   12.2740  -11.0073    0.0000 C   0  0  2  0  0  0  0  0  0  0  0  0
   11.5594  -13.9077    0.0000 O   0  0  0  0  0  0  0  0  0  0  0  0
    9.1915  -14.2856    0.0000 C   0  0  0  0  0  0  0  0  0  0  0  0
    8.5800  -13.4887    0.0000 O   0  0  0  0  0  0  0  0  0  0  0  0
   10.1194  -14.7261    0.0000 N   0  0  0  0  0  0  0  0  0  0  0  0
    9.3951  -15.1445    0.0000 C   0  0  0  0  0  0  0  0  0  0  0  0
   13.0049  -13.0762    0.0000 N   0  0  0  0  0  0  0  0  0  0  0  0
   11.5763  -10.6043    0.0000 O   0  0  0  0  0  0  0  0  0  0  0  0
   14.4480  -10.5965    0.0000 N   0  0  0  0  0  0  0  0  0  0  0  0
   12.9886   -9.7762    0.0000 O   0  0  0  0  0  0  0  0  0  0  0  0
   13.7070   -9.3616    0.0000 C   0  0  1  0  0  0  0  0  0  0  0  0
   14.4133   -9.7696    0.0000 O   0  0  0  0  0  0  0  0  0  0  0  0
   15.1278   -9.3573    0.0000 C   0  0  1  0  0  0  0  0  0  0  0  0
   15.1280   -8.5323    0.0000 C   0  0  0  0  0  0  0  0  0  0  0  0
   14.4218   -8.1243    0.0000 C   0  0  0  0  0  0  0  0  0  0  0  0
   13.7072   -8.5366    0.0000 C   0  0  1  0  0  0  0  0  0  0  0  0
   15.8532   -9.7763    0.0000 C   0  0  1  0  0  0  0  0  0  0  0  0
   16.5578   -9.3696    0.0000 R#  0  0  0  0  0  0  0  0  0  0  0  0
   15.8530  -10.6011    0.0000 N   0  0  0  0  0  0  0  0  0  0  0  0
   16.5576  -11.0082    0.0000 R#  0  0  0  0  0  0  0  0  0  0  0  0
   12.9847   -8.1192    0.0000 N   0  0  0  0  0  0  0  0  0  0  0  0
   15.7112   -8.7739    0.0000 H   0  0  0  0  0  0  0  0  0  0  0  0
  1  2  1  0  0  0  0
  2  3  1  0  0  0  0
  3  4  1  0  0  0  0
  4  5  1  0  0  0  0
  5  6  1  0  0  0  0
  1  6  1  0  0  0  0
  5  7  1  6  0  0  0
  8  7  1  6  0  0  0
  8  9  1  0  0  0  0
  9 10  1  0  0  0  0
 10 11  1  0  0  0  0
 11 12  1  0  0  0  0
 12 13  1  0  0  0  0
  8 13  1  0  0  0  0
  4 14  1  6  0  0  0
  2 15  1  6  0  0  0
  2 16  1  1  0  0  0
  3 17  1  1  0  0  0
 17 18  1  0  0  0  0
  9 19  1  1  0  0  0
 13 20  1  1  0  0  0
 11 21  1  1  0  0  0
 12 22  1  6  0  0  0
 23 22  1  6  0  0  0
 23 24  1  0  0  0  0
 24 25  1  0  0  0  0
 25 26  1  0  0  0  0
 26 27  1  0  0  0  0
 27 28  1  0  0  0  0
 23 28  1  0  0  0  0
 25 29  1  0  0  0  0
 29 30  1  1  0  0  0
 29 31  1  0  0  0  0
 31 32  1  0  0  0  0
 28 33  1  6  0  0  0
 25 34  1  6  0  0  0
M  RGP  2  30   1  32   2
M  END

>  <ACTIVITY>
5.00
$$$$
28418
ChEBI
  Mrv0541 05041708502D          

 32 34  0  0  1  0            999 V2000
    9.8445  -10.8546    0.0000 C   0  0  1  0  0  0  0  0  0  0  0  0
    9.8445  -11.6796    0.0000 C   0  0  1  0  0  0  0  0  0  0  0  0
    9.1300  -10.4421    0.0000 C   0  0  2  0  0  0  0  0  0  0  0  0
    9.1300  -12.0921    0.0000 C   0  0  0  0  0  0  0  0  0  0  0  0
    8.4155  -10.8546    0.0000 C   0  0  1  0  0  0  0  0  0  0  0  0
    8.4155  -11.6796    0.0000 C   0  0  1  0  0  0  0  0  0  0  0  0
    9.1300   -9.6171    0.0000 O   0  0  0  0  0  0  0  0  0  0  0  0
    7.7010  -10.4421    0.0000 O   0  0  0  0  0  0  0  0  0  0  0  0
   10.5589  -10.4421    0.0000 O   0  0  0  0  0  0  0  0  0  0  0  0
   10.5589  -12.0921    0.0000 N   0  0  0  0  0  0  0  0  0  0  0  0
    7.7010  -12.0921    0.0000 N   0  0  0  0  0  0  0  0  0  0  0  0
   13.3603  -10.4107    0.0000 C   0  0  0  0  0  0  0  0  0  0  0  0
   13.3603  -11.2357    0.0000 C   0  0  1  0  0  0  0  0  0  0  0  0
   12.6458   -9.9982    0.0000 O   0  0  0  0  0  0  0  0  0  0  0  0
   12.6458  -11.6482    0.0000 C   0  0  2  0  0  0  0  0  0  0  0  0
   11.9313  -10.4107    0.0000 C   0  0  2  0  0  0  0  0  0  0  0  0
   11.9313  -11.2357    0.0000 C   0  0  1  0  0  0  0  0  0  0  0  0
   14.0747  -11.6483    0.0000 O   0  0  0  0  0  0  0  0  0  0  0  0
   12.6458  -12.4732    0.0000 N   0  0  0  0  0  0  0  0  0  0  0  0
   11.2168  -11.6482    0.0000 O   0  0  0  0  0  0  0  0  0  0  0  0
   11.9313  -12.8857    0.0000 C   0  0  0  0  0  0  0  0  0  0  0  0
    6.1003  -10.4186    0.0000 C   0  0  2  0  0  0  0  0  0  0  0  0
    6.1003  -11.2436    0.0000 C   0  0  1  0  0  0  0  0  0  0  0  0
    5.3858  -10.0061    0.0000 O   0  0  0  0  0  0  0  0  0  0  0  0
    5.3858  -11.6561    0.0000 C   0  0  2  0  0  0  0  0  0  0  0  0
    4.6713  -10.4186    0.0000 C   0  0  1  0  0  0  0  0  0  0  0  0
    4.6713  -11.2436    0.0000 C   0  0  1  0  0  0  0  0  0  0  0  0
    6.8147  -11.6561    0.0000 N   0  0  0  0  0  0  0  0  0  0  0  0
    5.3858  -12.4811    0.0000 O   0  0  0  0  0  0  0  0  0  0  0  0
    3.9568  -11.6561    0.0000 O   0  0  0  0  0  0  0  0  0  0  0  0
    3.9568  -10.0061    0.0000 C   0  0  0  0  0  0  0  0  0  0  0  0
    3.2424  -10.4186    0.0000 O   0  0  0  0  0  0  0  0  0  0  0  0
  2  1  1  0  0  0  0
  3  1  1  0  0  0  0
  4  2  1  0  0  0  0
  5  3  1  0  0  0  0
  6  4  1  0  0  0  0
  6  5  1  0  0  0  0
  3  7  1  6  0  0  0
  5  8  1  1  0  0  0
  1  9  1  1  0  0  0
  2 10  1  6  0  0  0
  6 11  1  6  0  0  0
 12 13  1  0  0  0  0
 12 14  1  0  0  0  0
 13 15  1  0  0  0  0
 14 16  1  0  0  0  0
 15 17  1  0  0  0  0
 16 17  1  0  0  0  0
 13 18  1  6  0  0  0
 15 19  1  1  0  0  0
 17 20  1  6  0  0  0
 16  9  1  6  0  0  0
 21 19  1  0  0  0  0
 22 23  1  0  0  0  0
 22 24  1  0  0  0  0
 23 25  1  0  0  0  0
 24 26  1  0  0  0  0
 25 27  1  0  0  0  0
 26 27  1  0  0  0  0
 22  8  1  6  0  0  0
 23 28  1  6  0  0  0
 25 29  1  1  0  0  0
 27 30  1  6  0  0  0
 26 31  1  1  0  0  0
 32 31  1  0  0  0  0
M  END

>  <ACTIVITY>
5.00
$$$$
27412
ChEBI
  Mrv0541 05041708502D          

 33 35  0  0  1  0            999 V2000
   10.7753   -8.7686    0.0000 C   0  0  0  0  0  0  0  0  0  0  0  0
   10.7753   -9.5936    0.0000 C   0  0  2  0  0  0  0  0  0  0  0  0
   10.0608   -8.3561    0.0000 C   0  0  0  0  0  0  0  0  0  0  0  0
   10.0608  -10.0061    0.0000 O   0  0  0  0  0  0  0  0  0  0  0  0
    9.3463   -8.7686    0.0000 C   0  0  2  0  0  0  0  0  0  0  0  0
    9.3463   -9.5936    0.0000 C   0  0  1  0  0  0  0  0  0  0  0  0
   11.4898  -10.0061    0.0000 C   0  0  0  0  0  0  0  0  0  0  0  0
    8.6319   -8.3561    0.0000 N   0  0  0  0  0  0  0  0  0  0  0  0
   11.4950  -10.8350    0.0000 N   0  0  0  0  0  0  0  0  0  0  0  0
    9.3809  -11.2161    0.0000 C   0  0  1  0  0  0  0  0  0  0  0  0
    9.3809  -12.0411    0.0000 C   0  0  0  0  0  0  0  0  0  0  0  0
    8.6664  -10.8036    0.0000 C   0  0  2  0  0  0  0  0  0  0  0  0
    8.6664  -12.4536    0.0000 C   0  0  2  0  0  0  0  0  0  0  0  0
    7.9519  -11.2161    0.0000 C   0  0  1  0  0  0  0  0  0  0  0  0
    7.9519  -12.0411    0.0000 C   0  0  1  0  0  0  0  0  0  0  0  0
    7.2375  -10.8036    0.0000 O   0  0  0  0  0  0  0  0  0  0  0  0
    7.2375  -12.4536    0.0000 O   0  0  0  0  0  0  0  0  0  0  0  0
   10.0954  -10.8035    0.0000 N   0  0  0  0  0  0  0  0  0  0  0  0
    8.6663  -13.2786    0.0000 N   0  0  0  0  0  0  0  0  0  0  0  0
    8.6664  -10.0179    0.0000 O   0  0  0  0  0  0  0  0  0  0  0  0
   12.2120  -11.2430    0.0000 C   0  0  0  0  0  0  0  0  0  0  0  0
   12.2029   -9.5913    0.0000 C   0  0  0  0  0  0  0  0  0  0  0  0
    6.5230  -12.8661    0.0000 C   0  0  2  0  0  0  0  0  0  0  0  0
    6.5230  -13.6911    0.0000 C   0  0  1  0  0  0  0  0  0  0  0  0
    5.8085  -12.4536    0.0000 O   0  0  0  0  0  0  0  0  0  0  0  0
    5.8085  -14.1036    0.0000 C   0  0  2  0  0  0  0  0  0  0  0  0
    5.0940  -12.8661    0.0000 C   0  0  0  0  0  0  0  0  0  0  0  0
    5.0940  -13.6911    0.0000 C   0  0  2  0  0  0  0  0  0  0  0  0
    7.2375  -14.1036    0.0000 O   0  0  0  0  0  0  0  0  0  0  0  0
    5.8085  -14.9286    0.0000 N   0  0  0  0  0  0  0  0  0  0  0  0
    4.2303  -13.2943    0.0000 O   0  0  0  0  0  0  0  0  0  0  0  0
    4.3922  -14.3707    0.0000 C   0  0  0  0  0  0  0  0  0  0  0  0
    5.0940  -15.3410    0.0000 C   0  0  0  0  0  0  0  0  0  0  0  0
  1  2  1  0  0  0  0
  1  3  1  0  0  0  0
  2  4  1  0  0  0  0
  3  5  1  0  0  0  0
  4  6  1  0  0  0  0
  5  6  1  0  0  0  0
  2  7  1  1  0  0  0
  5  8  1  6  0  0  0
  9  7  1  0  0  0  0
 11 10  1  0  0  0  0
 12 10  1  0  0  0  0
 13 11  1  0  0  0  0
 14 12  1  0  0  0  0
 15 13  1  0  0  0  0
 15 14  1  0  0  0  0
 14 16  1  1  0  0  0
 15 17  1  6  0  0  0
 10 18  1  1  0  0  0
 13 19  1  1  0  0  0
 12 20  1  6  0  0  0
  6 20  1  6  0  0  0
 21  9  1  0  0  0  0
 22  7  1  0  0  0  0
 23 24  1  0  0  0  0
 23 25  1  0  0  0  0
 24 26  1  0  0  0  0
 25 27  1  0  0  0  0
 26 28  1  0  0  0  0
 27 28  1  0  0  0  0
 23 17  1  6  0  0  0
 24 29  1  6  0  0  0
 26 30  1  1  0  0  0
 28 31  1  1  0  0  0
 28 32  1  6  0  0  0
 33 30  1  0  0  0  0
M  END

>  <ACTIVITY>
5.00
$$$$
27784
ChEBI
  Mrv0541 05041708502D          

 31 33  0  0  1  0            999 V2000
   10.0174  -17.2346    0.0000 C   0  0  1  0  0  0  0  0  0  0  0  0
   10.0174  -18.0596    0.0000 C   0  0  1  0  0  0  0  0  0  0  0  0
    9.3028  -16.8221    0.0000 C   0  0  0  0  0  0  0  0  0  0  0  0
    9.3028  -18.4721    0.0000 C   0  0  2  0  0  0  0  0  0  0  0  0
    8.5884  -17.2346    0.0000 C   0  0  1  0  0  0  0  0  0  0  0  0
    8.5884  -18.0596    0.0000 C   0  0  1  0  0  0  0  0  0  0  0  0
   10.7318  -16.8221    0.0000 N   0  0  0  0  0  0  0  0  0  0  0  0
    7.8739  -16.8221    0.0000 N   0  0  0  0  0  0  0  0  0  0  0  0
    7.8739  -18.4721    0.0000 O   0  0  0  0  0  0  0  0  0  0  0  0
    9.3028  -19.2971    0.0000 O   0  0  0  0  0  0  0  0  0  0  0  0
   10.7318  -18.4722    0.0000 O   0  0  0  0  0  0  0  0  0  0  0  0
    7.1594  -18.8846    0.0000 C   0  0  2  0  0  0  0  0  0  0  0  0
    7.1594  -19.7096    0.0000 C   0  0  1  0  0  0  0  0  0  0  0  0
    6.4449  -18.4721    0.0000 O   0  0  0  0  0  0  0  0  0  0  0  0
    6.4449  -20.1221    0.0000 C   0  0  0  0  0  0  0  0  0  0  0  0
    5.7305  -18.8846    0.0000 C   0  0  1  0  0  0  0  0  0  0  0  0
    5.7305  -19.7096    0.0000 C   0  0  0  0  0  0  0  0  0  0  0  0
    7.8739  -20.1222    0.0000 N   0  0  0  0  0  0  0  0  0  0  0  0
   11.4463  -18.8847    0.0000 C   0  0  2  0  0  0  0  0  0  0  0  0
   11.4463  -19.7097    0.0000 C   0  0  1  0  0  0  0  0  0  0  0  0
   12.1608  -18.4722    0.0000 O   0  0  0  0  0  0  0  0  0  0  0  0
   12.1608  -20.1222    0.0000 C   0  0  2  0  0  0  0  0  0  0  0  0
   12.8752  -18.8847    0.0000 C   0  0  0  0  0  0  0  0  0  0  0  0
   12.8752  -19.7097    0.0000 C   0  0  1  0  0  0  0  0  0  0  0  0
   10.7318  -20.1222    0.0000 O   0  0  0  0  0  0  0  0  0  0  0  0
   12.1608  -20.9472    0.0000 N   0  0  0  0  0  0  0  0  0  0  0  0
   11.4463  -21.3597    0.0000 C   0  0  0  0  0  0  0  0  0  0  0  0
   13.5536  -19.4229    0.0000 C   0  0  0  0  0  0  0  0  0  0  0  0
   13.0429  -20.4600    0.0000 O   0  0  0  0  0  0  0  0  0  0  0  0
    5.0160  -18.4721    0.0000 C   0  0  0  0  0  0  0  0  0  0  0  0
    5.0160  -17.6471    0.0000 N   0  0  0  0  0  0  0  0  0  0  0  0
  2  1  1  0  0  0  0
  3  1  1  0  0  0  0
  4  2  1  0  0  0  0
  5  3  1  0  0  0  0
  6  4  1  0  0  0  0
  6  5  1  0  0  0  0
  1  7  1  1  0  0  0
  5  8  1  1  0  0  0
  6  9  1  6  0  0  0
  4 10  1  1  0  0  0
  2 11  1  6  0  0  0
 12 13  1  0  0  0  0
 12 14  1  0  0  0  0
 13 15  1  0  0  0  0
 14 16  1  0  0  0  0
 15 17  1  0  0  0  0
 16 17  1  0  0  0  0
 12  9  1  6  0  0  0
 13 18  1  6  0  0  0
 19 20  1  0  0  0  0
 19 21  1  0  0  0  0
 20 22  1  0  0  0  0
 21 23  1  0  0  0  0
 22 24  1  0  0  0  0
 23 24  1  0  0  0  0
 19 11  1  1  0  0  0
 20 25  1  1  0  0  0
 22 26  1  6  0  0  0
 27 26  1  0  0  0  0
 24 28  1  1  0  0  0
 24 29  1  6  0  0  0
 16 30  1  1  0  0  0
 31 30  1  0  0  0  0
M  END

>  <ACTIVITY>
5.00
$$$$
28292
ChEBI
  Mrv0541 05041708502D          

 34 36  0  0  1  0            999 V2000
    9.6480   -9.8961    0.0000 C   0  0  2  0  0  0  0  0  0  0  0  0
    9.6480  -10.7211    0.0000 C   0  0  2  0  0  0  0  0  0  0  0  0
    8.9335   -9.4836    0.0000 C   0  0  1  0  0  0  0  0  0  0  0  0
    8.9335  -11.1336    0.0000 C   0  0  0  0  0  0  0  0  0  0  0  0
    8.2191   -9.8961    0.0000 C   0  0  1  0  0  0  0  0  0  0  0  0
    8.2191  -10.7211    0.0000 C   0  0  2  0  0  0  0  0  0  0  0  0
    8.9335   -8.6586    0.0000 O   0  0  0  0  0  0  0  0  0  0  0  0
   10.3625   -9.4835    0.0000 O   0  0  0  0  0  0  0  0  0  0  0  0
    7.5046   -9.4836    0.0000 O   0  0  0  0  0  0  0  0  0  0  0  0
    7.5046  -11.1336    0.0000 N   0  0  0  0  0  0  0  0  0  0  0  0
   10.3625  -11.1336    0.0000 N   0  0  0  0  0  0  0  0  0  0  0  0
   12.5059   -8.2461    0.0000 C   0  0  0  0  0  0  0  0  0  0  0  0
   12.5059   -9.0711    0.0000 C   0  0  2  0  0  0  0  0  0  0  0  0
   11.7914   -7.8336    0.0000 C   0  0  0  0  0  0  0  0  0  0  0  0
   11.7914   -9.4836    0.0000 O   0  0  0  0  0  0  0  0  0  0  0  0
   11.0770   -8.2461    0.0000 C   0  0  2  0  0  0  0  0  0  0  0  0
   11.0770   -9.0711    0.0000 C   0  0  1  0  0  0  0  0  0  0  0  0
   13.2204   -9.4836    0.0000 C   0  0  2  0  0  0  0  0  0  0  0  0
   10.3625   -7.8336    0.0000 N   0  0  0  0  0  0  0  0  0  0  0  0
   13.2204  -10.3086    0.0000 N   0  0  0  0  0  0  0  0  0  0  0  0
   13.9349   -9.0711    0.0000 C   0  0  0  0  0  0  0  0  0  0  0  0
    6.7901   -9.0711    0.0000 C   0  0  2  0  0  0  0  0  0  0  0  0
    6.0757   -9.4835    0.0000 C   0  0  1  0  0  0  0  0  0  0  0  0
    6.7901   -8.2460    0.0000 O   0  0  0  0  0  0  0  0  0  0  0  0
    5.3612   -9.0710    0.0000 C   0  0  2  0  0  0  0  0  0  0  0  0
    6.0757   -7.8335    0.0000 C   0  0  0  0  0  0  0  0  0  0  0  0
    5.3612   -8.2460    0.0000 C   0  0  2  0  0  0  0  0  0  0  0  0
    6.0756  -10.3085    0.0000 O   0  0  0  0  0  0  0  0  0  0  0  0
    4.6467   -9.4835    0.0000 N   0  0  0  0  0  0  0  0  0  0  0  0
    4.9375   -7.3385    0.0000 O   0  0  0  0  0  0  0  0  0  0  0  0
    3.9323   -9.0709    0.0000 C   0  0  0  0  0  0  0  0  0  0  0  0
    4.4943   -8.2500    0.0000 C   0  0  0  0  0  0  0  0  0  0  0  0
   13.9464   -9.8450    0.0000 H   0  0  0  0  0  0  0  0  0  0  0  0
   12.5007   -9.9000    0.0000 H   0  0  0  0  0  0  0  0  0  0  0  0
  2  1  1  0  0  0  0
  3  1  1  0  0  0  0
  4  2  1  0  0  0  0
  5  3  1  0  0  0  0
  6  4  1  0  0  0  0
  6  5  1  0  0  0  0
  3  7  1  1  0  0  0
  1  8  1  6  0  0  0
  5  9  1  1  0  0  0
  6 10  1  1  0  0  0
  2 11  1  1  0  0  0
 12 13  1  0  0  0  0
 12 14  1  0  0  0  0
 13 15  1  0  0  0  0
 14 16  1  0  0  0  0
 15 17  1  0  0  0  0
 16 17  1  0  0  0  0
 13 18  1  0  0  0  0
 17  8  1  6  0  0  0
 16 19  1  6  0  0  0
 20 18  1  0  0  0  0
 21 18  1  0  0  0  0
 22 23  1  0  0  0  0
 22 24  1  0  0  0  0
 23 25  1  0  0  0  0
 24 26  1  0  0  0  0
 25 27  1  0  0  0  0
 26 27  1  0  0  0  0
 22  9  1  6  0  0  0
 23 28  1  6  0  0  0
 25 29  1  1  0  0  0
 27 30  1  1  0  0  0
 31 29  1  0  0  0  0
 27 32  1  6  0  0  0
 18 33  1  6  0  0  0
 13 34  1  6  0  0  0
M  END

>  <ACTIVITY>
5.00
$$$$
471744

  Mrv0541 05041708502D          

 23 24  0  0  1  0            999 V2000
   -1.3681   -0.3762    0.0000 N   0  0  0  0  0  0  0  0  0  0  0  0
   -1.3681    0.4488    0.0000 C   0  0  2  0  0  0  0  0  0  0  0  0
   -0.5835   -0.6311    0.0000 C   0  0  0  0  0  0  0  0  0  0  0  0
   -2.1931   -0.3762    0.0000 C   0  0  0  0  0  0  0  0  0  0  0  0
   -0.5835    0.7037    0.0000 C   0  0  0  0  0  0  0  0  0  0  0  0
   -0.0986    0.0363    0.0000 C   0  0  0  0  0  0  0  0  0  0  0  0
   -0.3286   -1.4158    0.0000 C   0  0  0  0  0  0  0  0  0  0  0  0
   -2.7765   -0.9596    0.0000 O   0  0  0  0  0  0  0  0  0  0  0  0
   -2.9228    0.8337    0.0000 C   0  0  1  0  0  0  0  0  0  0  0  0
    0.7264    0.0363    0.0000 S   0  0  0  0  0  0  0  0  0  0  0  0
    0.4784   -1.5873    0.0000 O   0  0  0  0  0  0  0  0  0  0  0  0
   -0.8806   -2.0289    0.0000 O   0  0  0  0  0  0  0  0  0  0  0  0
   -3.6210    0.3942    0.0000 C   0  0  0  0  0  0  0  0  0  0  0  0
   -2.9543    1.6581    0.0000 O   0  0  0  0  0  0  0  0  0  0  0  0
    1.1389    0.7508    0.0000 C   0  0  0  0  0  0  0  0  0  0  0  0
    1.9639    0.7508    0.0000 C   0  0  0  0  0  0  0  0  0  0  0  0
    2.3764    1.4652    0.0000 N   0  0  0  0  0  0  0  0  0  0  0  0
    3.6139    2.1797    0.0000 N   0  0  0  0  0  0  0  0  0  0  0  0
   -1.3442    1.2735    0.0000 H   0  0  0  0  0  0  0  0  0  0  0  0
   -2.1931    0.4488    0.0000 C   0  0  2  0  0  0  0  0  0  0  0  0
   -2.1931    1.2738    0.0000 H   0  0  0  0  0  0  0  0  0  0  0  0
    3.2014    1.4652    0.0000 C   0  0  0  0  0  0  0  0  0  0  0  0
    3.6139    0.7508    0.0000 H   0  0  0  0  0  0  0  0  0  0  0  0
  1  2  1  0  0  0  0
  1  3  1  0  0  0  0
  1  4  1  0  0  0  0
  2 20  1  0  0  0  0
  2  5  1  0  0  0  0
  3  6  2  0  0  0  0
  3  7  1  0  0  0  0
  4  8  2  0  0  0  0
 20  9  1  0  0  0  0
  6 10  1  0  0  0  0
  7 11  1  0  0  0  0
  7 12  2  0  0  0  0
  9 13  1  0  0  0  0
  9 14  1  1  0  0  0
 10 15  1  0  0  0  0
 15 16  1  0  0  0  0
 16 17  1  0  0  0  0
 17 22  1  0  0  0  0
 22 18  2  0  0  0  0
  4 20  1  0  0  0  0
  5  6  1  0  0  0  0
  2 19  1  6  0  0  0
 20 21  1  1  0  0  0
 22 23  1  0  0  0  0
M  END

>  <ACTIVITY>
5.00
$$$$
51799

  Mrv0541 05041708502D          

 26 26  0  0  1  0            999 V2000
   -1.3681   -0.3762    0.0000 N   0  0  0  0  0  0  0  0  0  0  0  0
   -1.3681    0.4488    0.0000 C   0  0  2  0  0  0  0  0  0  0  0  0
   -0.5835   -0.6311    0.0000 C   0  0  0  0  0  0  0  0  0  0  0  0
   -2.1931   -0.3762    0.0000 C   0  0  0  0  0  0  0  0  0  0  0  0
   -0.5835    0.7037    0.0000 C   0  0  0  0  0  0  0  0  0  0  0  0
   -0.0986    0.0363    0.0000 C   0  0  0  0  0  0  0  0  0  0  0  0
   -0.3286   -1.4158    0.0000 C   0  0  0  0  0  0  0  0  0  0  0  0
   -2.7765   -0.9596    0.0000 O   0  0  0  0  0  0  0  0  0  0  0  0
   -2.9228    0.8337    0.0000 C   0  0  1  0  0  0  0  0  0  0  0  0
    0.7264    0.0363    0.0000 S   0  0  0  0  0  0  0  0  0  0  0  0
    0.4784   -1.5873    0.0000 O   0  0  0  0  0  0  0  0  0  0  0  0
   -0.8806   -2.0289    0.0000 O   0  0  0  0  0  0  0  0  0  0  0  0
   -3.6210    0.3942    0.0000 C   0  0  0  0  0  0  0  0  0  0  0  0
   -2.9543    1.6581    0.0000 O   0  0  0  0  0  0  0  0  0  0  0  0
    1.1389    0.7508    0.0000 C   0  0  0  0  0  0  0  0  0  0  0  0
    1.9639    0.7508    0.0000 C   0  0  0  0  0  0  0  0  0  0  0  0
    2.3764    1.4652    0.0000 N   0  0  0  0  0  0  0  0  0  0  0  0
    3.6139    2.1797    0.0000 N   0  0  0  0  0  0  0  0  0  0  0  0
   -1.3442    1.2735    0.0000 H   0  0  0  0  0  0  0  0  0  0  0  0
   -2.1931    0.4488    0.0000 C   0  0  2  0  0  0  0  0  0  0  0  0
   -2.1931    1.2738    0.0000 H   0  0  0  0  0  0  0  0  0  0  0  0
    3.2014    1.4652    0.0000 C   0  0  0  0  0  0  0  0  0  0  0  0
    3.6139    0.7508    0.0000 H   0  0  0  0  0  0  0  0  0  0  0  0
    3.2014   -1.3926    0.0000 H   0  0  0  0  0  0  0  0  0  0  0  0
    2.4869   -1.8051    0.0000 O   0  0  0  0  0  0  0  0  0  0  0  0
    1.7725   -1.3926    0.0000 H   0  0  0  0  0  0  0  0  0  0  0  0
  1  2  1  0  0  0  0
  1  3  1  0  0  0  0
  1  4  1  0  0  0  0
  2 20  1  0  0  0  0
  2  5  1  0  0  0  0
  3  6  2  0  0  0  0
  3  7  1  0  0  0  0
  4  8  2  0  0  0  0
 20  9  1  0  0  0  0
  6 10  1  0  0  0  0
  7 11  1  0  0  0  0
  7 12  2  0  0  0  0
  9 13  1  0  0  0  0
  9 14  1  1  0  0  0
 10 15  1  0  0  0  0
 15 16  1  0  0  0  0
 16 17  1  0  0  0  0
 17 22  1  0  0  0  0
 22 18  2  0  0  0  0
  4 20  1  0  0  0  0
  5  6  1  0  0  0  0
  2 19  1  6  0  0  0
 20 21  1  1  0  0  0
 22 23  1  0  0  0  0
 24 25  1  0  0  0  0
 25 26  1  0  0  0  0
M  END

>  <ACTIVITY>
5.00
$$$$
59511

  Mrv0541 05041708502D          

 25 24  0  0  1  0            999 V2000
    4.2150   -5.9476    0.0000 C   0  0  2  0  0  0  0  0  0  0  0  0
    3.8025   -6.6621    0.0000 C   0  0  0  0  0  0  0  0  0  0  0  0
    4.6275   -6.6621    0.0000 C   0  0  0  0  0  0  0  0  0  0  0  0
    4.2150   -5.1226    0.0000 C   0  0  0  0  0  0  0  0  0  0  0  0
    4.9295   -4.7101    0.0000 N   0  0  0  0  0  0  0  0  0  0  0  0
    4.9295   -3.8852    0.0000 C   0  0  0  0  0  0  0  0  0  0  0  0
    4.2150   -3.4727    0.0000 C   0  0  0  0  0  0  0  0  0  0  0  0
   11.3596   -3.4727    0.0000 C   0  0  0  0  0  0  0  0  0  0  0  0
   10.6452   -3.8852    0.0000 C   0  0  1  0  0  0  0  0  0  0  0  0
    3.5006   -4.7101    0.0000 O   0  0  0  0  0  0  0  0  0  0  0  0
    4.2150   -2.6477    0.0000 O   0  0  0  0  0  0  0  0  0  0  0  0
   11.3596   -2.6477    0.0000 O   0  0  0  0  0  0  0  0  0  0  0  0
    5.6439   -3.4727    0.0000 C   0  0  0  0  0  0  0  0  0  0  0  0
   10.6452   -4.7101    0.0000 N   0  0  0  0  0  0  0  0  0  0  0  0
    3.5006   -3.8852    0.0000 O   0  0  0  0  0  0  0  0  0  0  0  0
   12.0741   -3.8852    0.0000 O   0  5  0  0  0  0  0  0  0  0  0  0
    2.9776   -6.6621    0.0000 C   0  0  0  0  0  0  0  0  0  0  0  0
    3.3901   -7.3766    0.0000 C   0  0  0  0  0  0  0  0  0  0  0  0
    9.2163   -3.8852    0.0000 S   0  0  0  0  0  0  0  0  0  0  0  0
    9.9307   -3.4727    0.0000 C   0  0  0  0  0  0  0  0  0  0  0  0
    6.3584   -3.8852    0.0000 C   0  0  0  0  0  0  0  0  0  0  0  0
    8.5017   -3.4727    0.0000 C   0  0  0  0  0  0  0  0  0  0  0  0
    7.0729   -3.4727    0.0000 C   0  0  0  0  0  0  0  0  0  0  0  0
    7.7873   -3.8852    0.0000 C   0  0  0  0  0  0  0  0  0  0  0  0
   12.4745   -3.0018    0.0000 Na  0  3  0  0  0  0  0  0  0  0  0  0
  2  1  1  0  0  0  0
  3  1  1  0  0  0  0
  1  4  1  1  0  0  0
  5  4  1  0  0  0  0
  6  5  1  0  0  0  0
  7  6  1  0  0  0  0
  8  9  1  0  0  0  0
  9 20  1  0  0  0  0
 10  4  2  0  0  0  0
 11  7  2  0  0  0  0
 12  8  2  0  0  0  0
 13  6  2  0  0  0  0
  9 14  1  1  0  0  0
 15  7  1  0  0  0  0
 16  8  1  0  0  0  0
 17  2  1  0  0  0  0
 18  2  1  0  0  0  0
 19 22  1  0  0  0  0
 20 19  1  0  0  0  0
 21 13  1  0  0  0  0
 22 24  1  0  0  0  0
 23 21  1  0  0  0  0
 24 23  1  0  0  0  0
  2  3  1  0  0  0  0
M  CHG  2  16  -1  25   1
M  END

>  <ACTIVITY>
5.00
$$$$
60070

  Mrv0541 05041708502D          

 38 40  0  0  1  0            999 V2000
    9.1720  -20.1607    0.0000 C   0  0  0  0  0  0  0  0  0  0  0  0
    9.6623  -19.4866    0.0000 C   0  0  0  0  0  0  0  0  0  0  0  0
    9.1720  -18.8432    0.0000 C   0  0  1  0  0  0  0  0  0  0  0  0
    8.4060  -19.9156    0.0000 N   0  0  0  0  0  0  0  0  0  0  0  0
    8.4060  -19.0883    0.0000 C   0  0  1  0  0  0  0  0  0  0  0  0
    7.5481  -19.0883    0.0000 C   0  0  2  0  0  0  0  0  0  0  0  0
    7.5481  -19.9156    0.0000 C   0  0  0  0  0  0  0  0  0  0  0  0
    6.8434  -18.6900    0.0000 C   0  0  2  0  0  0  0  0  0  0  0  0
    6.8434  -17.8627    0.0000 O   0  0  0  0  0  0  0  0  0  0  0  0
    6.1387  -19.0883    0.0000 C   0  0  0  0  0  0  0  0  0  0  0  0
    6.9966  -20.4978    0.0000 O   0  0  0  0  0  0  0  0  0  0  0  0
    9.3559  -20.9573    0.0000 C   0  0  0  0  0  0  0  0  0  0  0  0
   10.1219  -21.2331    0.0000 O   0  0  0  0  0  0  0  0  0  0  0  0
    8.7431  -21.5395    0.0000 O   0  5  0  0  0  0  0  0  0  0  0  0
    9.4172  -18.0466    0.0000 C   0  0  0  0  0  0  0  0  0  0  0  0
   10.4896  -19.4866    0.0000 S   0  0  0  0  0  0  0  0  0  0  0  0
   10.8875  -20.2212    0.0000 C   0  0  2  0  0  0  0  0  0  0  0  0
   10.6278  -21.0043    0.0000 C   0  0  0  0  0  0  0  0  0  0  0  0
   11.3029  -21.4775    0.0000 N   0  3  0  0  0  0  0  0  0  0  0  0
   11.9437  -20.9839    0.0000 C   0  0  1  0  0  0  0  0  0  0  0  0
   11.7051  -20.2214    0.0000 C   0  0  0  0  0  0  0  0  0  0  0  0
   12.6467  -21.4152    0.0000 C   0  0  0  0  0  0  0  0  0  0  0  0
   12.6446  -22.2119    0.0000 O   0  0  0  0  0  0  0  0  0  0  0  0
   13.3831  -20.9881    0.0000 N   0  0  0  0  0  0  0  0  0  0  0  0
   13.3852  -20.1608    0.0000 C   0  0  0  0  0  0  0  0  0  0  0  0
   12.6508  -19.7606    0.0000 C   0  0  0  0  0  0  0  0  0  0  0  0
   12.6529  -18.9334    0.0000 C   0  0  0  0  0  0  0  0  0  0  0  0
   13.3893  -18.5063    0.0000 C   0  0  0  0  0  0  0  0  0  0  0  0
   14.0930  -18.9370    0.0000 C   0  0  0  0  0  0  0  0  0  0  0  0
   14.0909  -19.7642    0.0000 C   0  0  0  0  0  0  0  0  0  0  0  0
   14.7988  -18.5098    0.0000 C   0  0  0  0  0  0  0  0  0  0  0  0
   15.5331  -18.9406    0.0000 O   0  5  0  0  0  0  0  0  0  0  0  0
   14.8008  -17.7132    0.0000 O   0  0  0  0  0  0  0  0  0  0  0  0
    7.5787  -18.2610    0.0000 H   0  0  0  0  0  0  0  0  0  0  0  0
    8.4060  -18.2610    0.0000 H   0  0  0  0  0  0  0  0  0  0  0  0
   12.7381  -20.7717    0.0000 H   0  0  0  0  0  0  0  0  0  0  0  0
   10.0868  -20.4328    0.0000 H   0  0  0  0  0  0  0  0  0  0  0  0
   15.0604  -21.2501    0.0000 Na  0  3  0  0  0  0  0  0  0  0  0  0
  4  1  1  0  0  0  0
  2  1  2  0  0  0  0
 12  1  1  0  0  0  0
 16  2  1  0  0  0  0
  3  2  1  0  0  0  0
  5  3  1  0  0  0  0
  3 15  1  1  0  0  0
  5  4  1  0  0  0  0
  7  4  1  0  0  0  0
  6  5  1  0  0  0  0
  5 35  1  6  0  0  0
  8  6  1  0  0  0  0
  7  6  1  0  0  0  0
  6 34  1  1  0  0  0
 11  7  2  0  0  0  0
  8  9  1  1  0  0  0
 10  8  1  0  0  0  0
 13 12  2  0  0  0  0
 14 12  1  0  0  0  0
 17 16  1  1  0  0  0
 18 17  1  0  0  0  0
 21 17  1  0  0  0  0
 19 18  1  0  0  0  0
 20 19  1  0  0  0  0
 21 20  1  0  0  0  0
 20 22  1  1  0  0  0
 23 22  2  0  0  0  0
 24 22  1  0  0  0  0
 25 24  1  0  0  0  0
 26 25  2  0  0  0  0
 30 25  1  0  0  0  0
 27 26  1  0  0  0  0
 28 27  2  0  0  0  0
 29 28  1  0  0  0  0
 30 29  2  0  0  0  0
 31 29  1  0  0  0  0
 32 31  1  0  0  0  0
 33 31  2  0  0  0  0
 20 36  1  6  0  0  0
 17 37  1  6  0  0  0
M  CHG  4  14  -1  19   1  32  -1  38   1
M  END

>  <ACTIVITY>
5.00
$$$$
3697

  Mrv0541 05041708502D          

 24 24  0  0  1  0            999 V2000
    5.8263   -6.1809    0.0000 C   0  0  2  0  0  0  0  0  0  0  0  0
    5.4138   -6.8954    0.0000 C   0  0  0  0  0  0  0  0  0  0  0  0
    6.2388   -6.8954    0.0000 C   0  0  0  0  0  0  0  0  0  0  0  0
    5.8263   -5.3559    0.0000 C   0  0  0  0  0  0  0  0  0  0  0  0
    6.5408   -4.9434    0.0000 N   0  0  0  0  0  0  0  0  0  0  0  0
    6.5408   -4.1184    0.0000 C   0  0  0  0  0  0  0  0  0  0  0  0
    5.8263   -3.7059    0.0000 C   0  0  0  0  0  0  0  0  0  0  0  0
   12.9710   -3.7059    0.0000 C   0  0  0  0  0  0  0  0  0  0  0  0
   12.2566   -4.1184    0.0000 C   0  0  1  0  0  0  0  0  0  0  0  0
    5.1118   -4.9434    0.0000 O   0  0  0  0  0  0  0  0  0  0  0  0
    5.8263   -2.8809    0.0000 O   0  0  0  0  0  0  0  0  0  0  0  0
   12.9710   -2.8809    0.0000 O   0  0  0  0  0  0  0  0  0  0  0  0
    7.2552   -3.7059    0.0000 C   0  0  0  0  0  0  0  0  0  0  0  0
   12.2566   -4.9434    0.0000 N   0  0  0  0  0  0  0  0  0  0  0  0
    5.1118   -4.1184    0.0000 O   0  0  0  0  0  0  0  0  0  0  0  0
   13.6855   -4.1184    0.0000 O   0  0  0  0  0  0  0  0  0  0  0  0
    4.5888   -6.8954    0.0000 C   0  0  0  0  0  0  0  0  0  0  0  0
    5.0013   -7.6099    0.0000 C   0  0  0  0  0  0  0  0  0  0  0  0
   10.8276   -4.1184    0.0000 S   0  0  0  0  0  0  0  0  0  0  0  0
   11.5421   -3.7059    0.0000 C   0  0  0  0  0  0  0  0  0  0  0  0
    7.9697   -4.1184    0.0000 C   0  0  0  0  0  0  0  0  0  0  0  0
   10.1131   -3.7059    0.0000 C   0  0  0  0  0  0  0  0  0  0  0  0
    8.6842   -3.7059    0.0000 C   0  0  0  0  0  0  0  0  0  0  0  0
    9.3986   -4.1184    0.0000 C   0  0  0  0  0  0  0  0  0  0  0  0
  2  1  1  0  0  0  0
  3  1  1  0  0  0  0
  1  4  1  1  0  0  0
  5  4  1  0  0  0  0
  6  5  1  0  0  0  0
  7  6  1  0  0  0  0
  8  9  1  0  0  0  0
  9 20  1  0  0  0  0
 10  4  2  0  0  0  0
 11  7  2  0  0  0  0
 12  8  2  0  0  0  0
 13  6  2  0  0  0  0
  9 14  1  1  0  0  0
 15  7  1  0  0  0  0
 16  8  1  0  0  0  0
 17  2  1  0  0  0  0
 18  2  1  0  0  0  0
 19 22  1  0  0  0  0
 20 19  1  0  0  0  0
 21 13  1  0  0  0  0
 22 24  1  0  0  0  0
 23 21  1  0  0  0  0
 24 23  1  0  0  0  0
  2  3  1  0  0  0  0
M  END

>  <ACTIVITY>
5.00
$$$$
63598
 
  Mrv0541 05041708502D          

 26 29  0  0  1  0            999 V2000
   15.8769  -11.4292    0.0000 C   0  0  0  0  0  0  0  0  0  0  0  0
   15.1600  -11.8408    0.0000 C   0  0  0  0  0  0  0  0  0  0  0  0
   15.8736  -10.6093    0.0000 C   0  0  0  0  0  0  0  0  0  0  0  0
   16.5905  -11.8408    0.0000 N   0  0  0  0  0  0  0  0  0  0  0  0
   14.4466  -11.4257    0.0000 C   0  0  0  0  0  0  0  0  0  0  0  0
   15.1600  -12.6674    0.0000 O   0  0  0  0  0  0  0  0  0  0  0  0
   16.5836  -10.1943    0.0000 C   0  0  0  0  0  0  0  0  0  0  0  0
   15.1635  -10.1875    0.0000 C   0  0  0  0  0  0  0  0  0  0  0  0
   17.3005  -11.4257    0.0000 C   0  0  0  0  0  0  0  0  0  0  0  0
   16.5905  -12.6674    0.0000 C   0  0  2  0  0  0  0  0  0  0  0  0
   13.7262  -11.8408    0.0000 N   0  0  0  0  0  0  0  0  0  0  0  0
   14.4466  -10.5990    0.0000 C   0  0  0  0  0  0  0  0  0  0  0  0
   15.8769  -13.0756    0.0000 C   0  0  0  0  0  0  0  0  0  0  0  0
   17.3005  -10.6025    0.0000 C   0  0  0  0  0  0  0  0  0  0  0  0
   16.5801   -9.3744    0.0000 O   0  0  0  0  0  0  0  0  0  0  0  0
   17.3005  -13.0791    0.0000 C   0  0  0  0  0  0  0  0  0  0  0  0
   13.7228  -12.6674    0.0000 C   0  0  0  0  0  0  0  0  0  0  0  0
   13.0127  -11.4223    0.0000 C   0  0  0  0  0  0  0  0  0  0  0  0
   13.7262  -10.1943    0.0000 F   0  0  0  0  0  0  0  0  0  0  0  0
   18.0071  -10.1943    0.0000 C   0  0  0  0  0  0  0  0  0  0  0  0
   13.0059  -13.0722    0.0000 C   0  0  0  0  0  0  0  0  0  0  0  0
   12.2615  -11.8339    0.0000 C   0  0  0  0  0  0  0  0  0  0  0  0
   18.7171  -10.6059    0.0000 O   0  0  0  0  0  0  0  0  0  0  0  0
   18.0037   -9.3710    0.0000 O   0  0  0  0  0  0  0  0  0  0  0  0
   12.2958  -12.6606    0.0000 N   0  0  0  0  0  0  0  0  0  0  0  0
   11.5789  -13.0722    0.0000 C   0  0  0  0  0  0  0  0  0  0  0  0
  1  2  1  0  0  0  0
  1  3  2  0  0  0  0
  1  4  1  0  0  0  0
  2  5  2  0  0  0  0
  2  6  1  0  0  0  0
  3  7  1  0  0  0  0
  3  8  1  0  0  0  0
  4  9  1  0  0  0  0
  4 10  1  0  0  0  0
  5 11  1  0  0  0  0
  5 12  1  0  0  0  0
  6 13  1  0  0  0  0
  7 14  1  0  0  0  0
  7 15  2  0  0  0  0
 10 16  1  1  0  0  0
 11 17  1  0  0  0  0
 11 18  1  0  0  0  0
 12 19  1  0  0  0  0
 14 20  1  0  0  0  0
 17 21  1  0  0  0  0
 18 22  1  0  0  0  0
 20 23  1  0  0  0  0
 20 24  2  0  0  0  0
 21 25  1  0  0  0  0
 25 26  1  0  0  0  0
  8 12  2  0  0  0  0
  9 14  2  0  0  0  0
 10 13  1  0  0  0  0
 22 25  1  0  0  0  0
M  END

>  <ACTIVITY>
5.00
$$$$
43968

  Mrv0541 05041708502D          

 28 30  0  0  1  0            999 V2000
   -0.4125    0.4125    0.0000 C   0  0  2  0  0  0  0  0  0  0  0  0
    0.4125    0.4125    0.0000 C   0  0  2  0  0  0  0  0  0  0  0  0
    0.4125   -0.4125    0.0000 N   0  0  0  0  0  0  0  0  0  0  0  0
   -0.4125   -0.4125    0.0000 C   0  0  0  0  0  0  0  0  0  0  0  0
    1.1971   -0.6674    0.0000 C   0  0  0  0  0  0  0  0  0  0  0  0
    1.1971    0.6674    0.0000 C   0  0  1  0  0  0  0  0  0  0  0  0
    1.4166   -1.4627    0.0000 C   0  0  0  0  0  0  0  0  0  0  0  0
   -0.9959   -0.9959    0.0000 O   0  0  0  0  0  0  0  0  0  0  0  0
    2.1752   -1.7870    0.0000 O   0  0  0  0  0  0  0  0  0  0  0  0
    0.7953   -2.0055    0.0000 O   0  0  0  0  0  0  0  0  0  0  0  0
   -0.4125    1.2375    0.0000 H   0  0  0  0  0  0  0  0  0  0  0  0
    0.4125    1.2375    0.0000 H   0  0  0  0  0  0  0  0  0  0  0  0
    1.4521    1.4521    0.0000 C   0  0  0  0  0  0  0  0  0  0  0  0
   -1.8414    0.4125    0.0000 C   0  0  0  0  0  0  0  0  0  0  0  0
   -1.1270    0.8250    0.0000 C   0  0  1  0  0  0  0  0  0  0  0  0
   -1.1270    1.6500    0.0000 O   0  0  0  0  0  0  0  0  0  0  0  0
    1.6820    0.0000    0.0000 C   0  0  0  0  0  0  0  0  0  0  0  0
    2.5070    0.0000    0.0000 S   0  0  0  0  0  0  0  0  0  0  0  0
    2.9920    0.6674    0.0000 C   0  0  1  0  0  0  0  0  0  0  0  0
    3.8170    0.6674    0.0000 C   0  0  0  0  0  0  0  0  0  0  0  0
    2.7370    1.4521    0.0000 C   0  0  0  0  0  0  0  0  0  0  0  0
    3.4045    1.9369    0.0000 N   0  0  0  0  0  0  0  0  0  0  0  0
    4.0719    1.4521    0.0000 C   0  0  2  0  0  0  0  0  0  0  0  0
    4.7863    1.8645    0.0000 C   0  0  0  0  0  0  0  0  0  0  0  0
    5.5007    1.4521    0.0000 N   0  0  0  0  0  0  0  0  0  0  0  0
    4.7863    2.6895    0.0000 O   0  0  0  0  0  0  0  0  0  0  0  0
    5.5007    0.6271    0.0000 C   0  0  0  0  0  0  0  0  0  0  0  0
    6.2152    1.8645    0.0000 C   0  0  0  0  0  0  0  0  0  0  0  0
  1 11  1  1  0  0  0
  1 15  1  0  0  0  0
  1  2  1  0  0  0  0
  6  2  1  0  0  0  0
  2 12  1  6  0  0  0
  2  3  1  0  0  0  0
  5  3  1  0  0  0  0
  1  4  1  0  0  0  0
  4  3  1  0  0  0  0
  8  4  2  0  0  0  0
 17  5  2  0  0  0  0
  7  5  1  0  0  0  0
 17  6  1  0  0  0  0
  6 13  1  1  0  0  0
  9  7  2  0  0  0  0
 10  7  1  0  0  0  0
 15 14  1  0  0  0  0
 15 16  1  1  0  0  0
 17 18  1  0  0  0  0
 19 18  1  6  0  0  0
 20 19  1  0  0  0  0
 21 19  1  0  0  0  0
 23 20  1  0  0  0  0
 22 21  1  0  0  0  0
 22 23  1  0  0  0  0
 23 24  1  6  0  0  0
 25 24  1  0  0  0  0
 26 24  2  0  0  0  0
 27 25  1  0  0  0  0
 28 25  1  0  0  0  0
M  END

>  <ACTIVITY>
5.00
$$$$
6770

  Mrv0541 05041708502D          

 37 36  0  0  1  0            999 V2000
   -0.4125    0.4125    0.0000 C   0  0  2  0  0  0  0  0  0  0  0  0
    0.4125    0.4125    0.0000 C   0  0  1  0  0  0  0  0  0  0  0  0
   -0.4125   -0.4125    0.0000 C   0  0  0  0  0  0  0  0  0  0  0  0
    1.1971   -0.6674    0.0000 C   0  0  0  0  0  0  0  0  0  0  0  0
    1.1971    0.6674    0.0000 C   0  0  1  0  0  0  0  0  0  0  0  0
    1.4166   -1.4627    0.0000 C   0  0  0  0  0  0  0  0  0  0  0  0
   -0.9959   -0.9959    0.0000 O   0  0  0  0  0  0  0  0  0  0  0  0
    2.1752   -1.7870    0.0000 O   0  0  0  0  0  0  0  0  0  0  0  0
    0.7953   -2.0055    0.0000 O   0  0  0  0  0  0  0  0  0  0  0  0
   -0.4125    1.2375    0.0000 H   0  0  0  0  0  0  0  0  0  0  0  0
    0.4125    1.2375    0.0000 H   0  0  0  0  0  0  0  0  0  0  0  0
    1.4521    1.4521    0.0000 C   0  0  0  0  0  0  0  0  0  0  0  0
   -1.8414    0.4125    0.0000 C   0  0  0  0  0  0  0  0  0  0  0  0
   -1.1270    0.8250    0.0000 C   0  0  1  0  0  0  0  0  0  0  0  0
   -1.1270    1.6500    0.0000 O   0  0  0  0  0  0  0  0  0  0  0  0
    1.6820    0.0000    0.0000 C   0  0  0  0  0  0  0  0  0  0  0  0
    2.5070    0.0000    0.0000 S   0  0  0  0  0  0  0  0  0  0  0  0
    2.9920    0.6674    0.0000 C   0  0  1  0  0  0  0  0  0  0  0  0
    3.8170    0.6674    0.0000 C   0  0  0  0  0  0  0  0  0  0  0  0
    2.7370    1.4521    0.0000 C   0  0  0  0  0  0  0  0  0  0  0  0
    3.4045    1.9369    0.0000 N   0  0  0  0  0  0  0  0  0  0  0  0
    4.0719    1.4521    0.0000 C   0  0  2  0  0  0  0  0  0  0  0  0
    4.7863    1.8645    0.0000 C   0  0  0  0  0  0  0  0  0  0  0  0
    5.5007    1.4521    0.0000 N   0  0  0  0  0  0  0  0  0  0  0  0
    4.7863    2.6895    0.0000 O   0  0  0  0  0  0  0  0  0  0  0  0
    5.5007    0.6271    0.0000 C   0  0  0  0  0  0  0  0  0  0  0  0
    6.2152    1.8645    0.0000 C   0  0  0  0  0  0  0  0  0  0  0  0
    0.4125   -0.4125    0.0000 N   0  0  0  0  0  0  0  0  0  0  0  0
    2.5559   -3.9270    0.0000 O   0  0  0  0  0  0  0  0  0  0  0  0
    1.8414   -3.5145    0.0000 H   0  0  0  0  0  0  0  0  0  0  0  0
    3.2704   -3.5145    0.0000 H   0  0  0  0  0  0  0  0  0  0  0  0
    5.4138   -3.9270    0.0000 O   0  0  0  0  0  0  0  0  0  0  0  0
   -0.3020   -3.9270    0.0000 O   0  0  0  0  0  0  0  0  0  0  0  0
   -1.0164   -3.5145    0.0000 H   0  0  0  0  0  0  0  0  0  0  0  0
    6.1282   -3.5145    0.0000 H   0  0  0  0  0  0  0  0  0  0  0  0
    4.6993   -3.5145    0.0000 H   0  0  0  0  0  0  0  0  0  0  0  0
    0.4125   -3.5145    0.0000 H   0  0  0  0  0  0  0  0  0  0  0  0
  1 10  1  1  0  0  0
  1 14  1  0  0  0  0
  1  2  1  0  0  0  0
  5  2  1  0  0  0  0
  2 11  1  6  0  0  0
  2 28  1  0  0  0  0
  4 28  1  0  0  0  0
  1  3  1  0  0  0  0
  3 28  1  0  0  0  0
  7  3  2  0  0  0  0
 16  4  2  0  0  0  0
  6  4  1  0  0  0  0
 16  5  1  0  0  0  0
  5 12  1  1  0  0  0
  8  6  2  0  0  0  0
  9  6  1  0  0  0  0
 14 13  1  0  0  0  0
 14 15  1  1  0  0  0
 16 17  1  0  0  0  0
 18 17  1  6  0  0  0
 19 18  1  0  0  0  0
 20 18  1  0  0  0  0
 22 19  1  0  0  0  0
 21 20  1  0  0  0  0
 21 22  1  0  0  0  0
 22 23  1  6  0  0  0
 24 23  1  0  0  0  0
 25 23  2  0  0  0  0
 26 24  1  0  0  0  0
 27 24  1  0  0  0  0
 37 33  1  0  0  0  0
 30 29  1  0  0  0  0
 29 31  1  0  0  0  0
 36 32  1  0  0  0  0
 32 35  1  0  0  0  0
 33 34  1  0  0  0  0
M  END

>  <ACTIVITY>
5.00
$$$$
404903

  Mrv0541 05041708502D          

 37 40  0  0  1  0            999 V2000
    9.2719  -13.6225    0.0000 C   0  0  0  0  0  0  0  0  0  0  0  0
    9.7621  -12.9484    0.0000 C   0  0  0  0  0  0  0  0  0  0  0  0
    9.2719  -12.3049    0.0000 C   0  0  1  0  0  0  0  0  0  0  0  0
    8.5059  -13.3774    0.0000 N   0  0  0  0  0  0  0  0  0  0  0  0
    8.5059  -12.5501    0.0000 C   0  0  1  0  0  0  0  0  0  0  0  0
    7.6479  -12.5501    0.0000 C   0  0  2  0  0  0  0  0  0  0  0  0
    7.6479  -13.3774    0.0000 C   0  0  0  0  0  0  0  0  0  0  0  0
    6.9432  -12.1517    0.0000 C   0  0  2  0  0  0  0  0  0  0  0  0
    6.9432  -11.3244    0.0000 O   0  0  0  0  0  0  0  0  0  0  0  0
    6.2385  -12.5501    0.0000 C   0  0  0  0  0  0  0  0  0  0  0  0
    7.0964  -13.9595    0.0000 O   0  0  0  0  0  0  0  0  0  0  0  0
    9.4557  -14.4191    0.0000 C   0  0  0  0  0  0  0  0  0  0  0  0
   10.2218  -14.6949    0.0000 O   0  0  0  0  0  0  0  0  0  0  0  0
    8.8429  -15.0013    0.0000 O   0  0  0  0  0  0  0  0  0  0  0  0
    9.5170  -11.5083    0.0000 C   0  0  0  0  0  0  0  0  0  0  0  0
   10.5894  -12.9484    0.0000 S   0  0  0  0  0  0  0  0  0  0  0  0
   10.9873  -13.6830    0.0000 C   0  0  2  0  0  0  0  0  0  0  0  0
   10.7277  -14.4661    0.0000 C   0  0  0  0  0  0  0  0  0  0  0  0
   11.4028  -14.9393    0.0000 N   0  0  0  0  0  0  0  0  0  0  0  0
   12.0437  -14.4456    0.0000 C   0  0  1  0  0  0  0  0  0  0  0  0
   11.8049  -13.6831    0.0000 C   0  0  0  0  0  0  0  0  0  0  0  0
   12.7466  -14.8770    0.0000 C   0  0  0  0  0  0  0  0  0  0  0  0
   12.7446  -15.6736    0.0000 O   0  0  0  0  0  0  0  0  0  0  0  0
   13.4830  -14.4499    0.0000 N   0  0  0  0  0  0  0  0  0  0  0  0
   13.4851  -13.6226    0.0000 C   0  0  0  0  0  0  0  0  0  0  0  0
   12.7507  -13.2224    0.0000 C   0  0  0  0  0  0  0  0  0  0  0  0
   12.7528  -12.3951    0.0000 C   0  0  0  0  0  0  0  0  0  0  0  0
   13.4893  -11.9680    0.0000 C   0  0  0  0  0  0  0  0  0  0  0  0
   14.1929  -12.3987    0.0000 C   0  0  0  0  0  0  0  0  0  0  0  0
   14.1908  -13.2260    0.0000 C   0  0  0  0  0  0  0  0  0  0  0  0
   14.8987  -11.9716    0.0000 C   0  0  0  0  0  0  0  0  0  0  0  0
   15.6330  -12.4024    0.0000 O   0  0  0  0  0  0  0  0  0  0  0  0
   14.9008  -11.1749    0.0000 O   0  0  0  0  0  0  0  0  0  0  0  0
    7.6786  -11.7228    0.0000 H   0  0  0  0  0  0  0  0  0  0  0  0
    8.5059  -11.7228    0.0000 H   0  0  0  0  0  0  0  0  0  0  0  0
   12.8380  -14.2334    0.0000 H   0  0  0  0  0  0  0  0  0  0  0  0
   10.1867  -13.8946    0.0000 H   0  0  0  0  0  0  0  0  0  0  0  0
  4  1  1  0  0  0  0
  2  1  2  0  0  0  0
 12  1  1  0  0  0  0
 16  2  1  0  0  0  0
  3  2  1  0  0  0  0
  5  3  1  0  0  0  0
  3 15  1  1  0  0  0
  5  4  1  0  0  0  0
  7  4  1  0  0  0  0
  6  5  1  0  0  0  0
  5 35  1  6  0  0  0
  8  6  1  0  0  0  0
  7  6  1  0  0  0  0
  6 34  1  1  0  0  0
 11  7  2  0  0  0  0
  8  9  1  1  0  0  0
 10  8  1  0  0  0  0
 13 12  2  0  0  0  0
 14 12  1  0  0  0  0
 17 16  1  1  0  0  0
 18 17  1  0  0  0  0
 21 17  1  0  0  0  0
 19 18  1  0  0  0  0
 20 19  1  0  0  0  0
 21 20  1  0  0  0  0
 20 22  1  1  0  0  0
 23 22  2  0  0  0  0
 24 22  1  0  0  0  0
 25 24  1  0  0  0  0
 26 25  2  0  0  0  0
 30 25  1  0  0  0  0
 27 26  1  0  0  0  0
 28 27  2  0  0  0  0
 29 28  1  0  0  0  0
 30 29  2  0  0  0  0
 31 29  1  0  0  0  0
 32 31  1  0  0  0  0
 33 31  2  0  0  0  0
 20 36  1  6  0  0  0
 17 37  1  6  0  0  0
M  END

>  <ACTIVITY>
5.00
$$$$
71415

  Mrv0541 05041708502D          

 17 18  0  0  0  0            999 V2000
   18.6968  -33.2311    0.0000 C   0  0  0  0  0  0  0  0  0  0  0  0
   18.0294  -33.7161    0.0000 N   0  0  0  0  0  0  0  0  0  0  0  0
   17.2447  -33.4611    0.0000 N   0  0  0  0  0  0  0  0  0  0  0  0
   17.0732  -32.6541    0.0000 C   0  0  0  0  0  0  0  0  0  0  0  0
   16.2886  -32.3992    0.0000 C   0  0  0  0  0  0  0  0  0  0  0  0
   15.6212  -32.8841    0.0000 O   0  0  0  0  0  0  0  0  0  0  0  0
   14.9538  -32.3992    0.0000 C   0  0  0  0  0  0  0  0  0  0  0  0
   15.2087  -31.6146    0.0000 C   0  0  0  0  0  0  0  0  0  0  0  0
   16.0337  -31.6146    0.0000 C   0  0  0  0  0  0  0  0  0  0  0  0
   14.1691  -32.6541    0.0000 N   0  3  0  0  0  0  0  0  0  0  0  0
   13.5561  -32.1021    0.0000 O   0  5  0  0  0  0  0  0  0  0  0  0
   13.9976  -33.4611    0.0000 O   0  0  0  0  0  0  0  0  0  0  0  0
   18.2843  -34.5007    0.0000 C   0  0  0  0  0  0  0  0  0  0  0  0
   19.1093  -34.5007    0.0000 C   0  0  0  0  0  0  0  0  0  0  0  0
   19.3642  -33.7161    0.0000 N   0  0  0  0  0  0  0  0  0  0  0  0
   18.6968  -32.4062    0.0000 O   0  0  0  0  0  0  0  0  0  0  0  0
   19.5942  -35.1681    0.0000 O   0  0  0  0  0  0  0  0  0  0  0  0
  1  2  1  0  0  0  0
  2  3  1  0  0  0  0
  3  4  2  0  0  0  0
  4  5  1  0  0  0  0
  5  6  1  0  0  0  0
  6  7  1  0  0  0  0
  7  8  2  0  0  0  0
  8  9  1  0  0  0  0
  5  9  2  0  0  0  0
  7 10  1  0  0  0  0
 10 11  1  0  0  0  0
 10 12  2  0  0  0  0
  2 13  1  0  0  0  0
 13 14  1  0  0  0  0
 14 15  1  0  0  0  0
  1 15  1  0  0  0  0
  1 16  2  0  0  0  0
 14 17  2  0  0  0  0
M  CHG  2  10   1  11  -1
M  END

>  <ACTIVITY>
5.00
$$$$
131714

  Mrv0541 05041708502D          

 19 20  0  0  0  0            999 V2000
   18.0912  -18.0054    0.0000 N   0  0  0  0  0  0  0  0  0  0  0  0
   17.2662  -17.9971    0.0000 C   0  0  0  0  0  0  0  0  0  0  0  0
   17.0035  -18.7791    0.0000 C   0  0  0  0  0  0  0  0  0  0  0  0
   17.6661  -19.2707    0.0000 N   0  0  0  0  0  0  0  0  0  0  0  0
   18.3382  -18.7925    0.0000 C   0  0  0  0  0  0  0  0  0  0  0  0
   19.1203  -19.0552    0.0000 O   0  0  0  0  0  0  0  0  0  0  0  0
   18.7049  -17.4536    0.0000 N   0  0  0  0  0  0  0  0  0  0  0  0
   19.3171  -16.8988    0.0000 C   0  0  0  0  0  0  0  0  0  0  0  0
   19.1459  -16.0918    0.0000 C   0  0  0  0  0  0  0  0  0  0  0  0
   16.2164  -19.0263    0.0000 O   0  0  0  0  0  0  0  0  0  0  0  0
   18.9754  -15.2812    0.0000 C   0  0  0  0  0  0  0  0  0  0  0  0
   18.1908  -15.0262    0.0000 C   0  0  0  0  0  0  0  0  0  0  0  0
   17.5233  -15.5112    0.0000 O   0  0  0  0  0  0  0  0  0  0  0  0
   16.8559  -15.0263    0.0000 C   0  0  0  0  0  0  0  0  0  0  0  0
   17.1108  -14.2417    0.0000 C   0  0  0  0  0  0  0  0  0  0  0  0
   17.9358  -14.2417    0.0000 C   0  0  0  0  0  0  0  0  0  0  0  0
   16.0713  -15.2812    0.0000 N   0  3  0  0  0  0  0  0  0  0  0  0
   15.4582  -14.7292    0.0000 O   0  5  0  0  0  0  0  0  0  0  0  0
   15.8998  -16.0882    0.0000 O   0  0  0  0  0  0  0  0  0  0  0  0
  1  2  1  0  0  0  0
  2  3  1  0  0  0  0
  3  4  1  0  0  0  0
  4  5  1  0  0  0  0
  5  1  1  0  0  0  0
  5  6  2  0  0  0  0
  1  7  1  0  0  0  0
  7  8  2  0  0  0  0
  8  9  1  0  0  0  0
  3 10  2  0  0  0  0
  9 11  2  0  0  0  0
 11 12  1  0  0  0  0
 12 13  1  0  0  0  0
 13 14  1  0  0  0  0
 14 15  2  0  0  0  0
 15 16  1  0  0  0  0
 16 12  2  0  0  0  0
 14 17  1  0  0  0  0
 17 18  1  0  0  0  0
 17 19  2  0  0  0  0
M  CHG  2  17   1  18  -1
M  END

>  <ACTIVITY>
5.00
$$$$
149836

  Mrv0541 05041708502D          

 44 47  0  0  1  0            999 V2000
   10.9363   -8.4028    0.0000 C   0  0  0  0  0  0  0  0  0  0  0  0
   11.6391   -8.8305    0.0000 C   0  0  0  0  0  0  0  0  0  0  0  0
   11.6391   -9.6555    0.0000 C   0  0  0  0  0  0  0  0  0  0  0  0
   10.9363  -10.0528    0.0000 C   0  0  2  0  0  0  0  0  0  0  0  0
   10.2030   -9.6555    0.0000 C   0  0  2  0  0  0  0  0  0  0  0  0
    9.5002  -10.0528    0.0000 C   0  0  0  0  0  0  0  0  0  0  0  0
    8.7669   -9.6555    0.0000 C   0  0  2  0  0  0  0  0  0  0  0  0
    8.0641  -10.0528    0.0000 C   0  0  0  0  0  0  0  0  0  0  0  0
    7.3308   -9.6555    0.0000 C   0  0  0  0  0  0  0  0  0  0  0  0
    6.6280  -10.0528    0.0000 C   0  0  0  0  0  0  0  0  0  0  0  0
    5.8947   -9.6555    0.0000 C   0  0  0  0  0  0  0  0  0  0  0  0
    5.8947   -8.8305    0.0000 C   0  0  0  0  0  0  0  0  0  0  0  0
    6.6280   -8.4028    0.0000 C   0  0  0  0  0  0  0  0  0  0  0  0
    7.3308   -8.8305    0.0000 C   0  0  0  0  0  0  0  0  0  0  0  0
    8.0641   -8.4028    0.0000 C   0  0  0  0  0  0  0  0  0  0  0  0
    8.7669   -8.8305    0.0000 C   0  0  0  0  0  0  0  0  0  0  0  0
    9.5002   -8.4028    0.0000 C   0  0  0  0  0  0  0  0  0  0  0  0
   10.2030   -8.8305    0.0000 C   0  0  2  0  0  0  0  0  0  0  0  0
   12.3724   -8.4028    0.0000 C   0  0  0  0  0  0  0  0  0  0  0  0
   12.3724   -7.5778    0.0000 O   0  0  0  0  0  0  0  0  0  0  0  0
   13.0752   -8.8305    0.0000 N   0  0  0  0  0  0  0  0  0  0  0  0
    8.0641   -7.5778    0.0000 O   0  0  0  0  0  0  0  0  0  0  0  0
   10.9363   -7.5778    0.0000 O   0  0  0  0  0  0  0  0  0  0  0  0
   10.2030   -8.0055    0.0000 O   0  0  0  0  0  0  0  0  0  0  0  0
    9.5002   -7.5778    0.0000 O   0  0  0  0  0  0  0  0  0  0  0  0
    6.6280   -7.5778    0.0000 O   0  0  0  0  0  0  0  0  0  0  0  0
   12.3724  -10.0528    0.0000 O   0  0  0  0  0  0  0  0  0  0  0  0
    5.1919   -8.4028    0.0000 N   0  0  0  0  0  0  0  0  0  0  0  0
    6.6280  -10.9084    0.0000 N   0  0  0  0  0  0  0  0  0  0  0  0
    5.8947  -11.3055    0.0000 C   0  0  0  0  0  0  0  0  0  0  0  0
    7.3308  -11.3055    0.0000 C   0  0  0  0  0  0  0  0  0  0  0  0
   10.9363  -10.9084    0.0000 N   0  0  0  0  0  0  0  0  0  0  0  0
   11.6391  -11.3055    0.0000 C   0  0  0  0  0  0  0  0  0  0  0  0
   10.2030  -11.3055    0.0000 C   0  0  0  0  0  0  0  0  0  0  0  0
   10.2030  -10.4805    0.0000 H   0  0  0  0  0  0  0  0  0  0  0  0
    8.7669  -10.4805    0.0000 H   0  0  0  0  0  0  0  0  0  0  0  0
    4.4729   -8.8166    0.0000 C   0  0  0  0  0  0  0  0  0  0  0  0
    3.7590   -8.4031    0.0000 C   0  0  0  0  0  0  0  0  0  0  0  0
    4.4717   -9.6416    0.0000 O   0  0  0  0  0  0  0  0  0  0  0  0
    3.0416   -8.8166    0.0000 N   0  0  0  0  0  0  0  0  0  0  0  0
    3.0416   -9.6416    0.0000 C   0  0  0  0  0  0  0  0  0  0  0  0
    2.3271  -10.0541    0.0000 C   0  0  0  0  0  0  0  0  0  0  0  0
    3.7560  -10.0541    0.0000 C   0  0  0  0  0  0  0  0  0  0  0  0
    3.0416  -10.4666    0.0000 C   0  0  0  0  0  0  0  0  0  0  0  0
  2  1  1  0  0  0  0
 18  1  1  0  0  0  0
 23  1  2  0  0  0  0
  3  2  2  0  0  0  0
 19  2  1  0  0  0  0
  4  3  1  0  0  0  0
 27  3  1  0  0  0  0
  5  4  1  0  0  0  0
  4 32  1  1  0  0  0
  6  5  1  0  0  0  0
 18  5  1  0  0  0  0
  5 35  1  1  0  0  0
  7  6  1  0  0  0  0
  8  7  1  0  0  0  0
 16  7  1  0  0  0  0
  7 36  1  1  0  0  0
  9  8  1  0  0  0  0
 10  9  1  0  0  0  0
 14  9  2  0  0  0  0
 11 10  2  0  0  0  0
 29 10  1  0  0  0  0
 12 11  1  0  0  0  0
 13 12  2  0  0  0  0
 28 12  1  0  0  0  0
 14 13  1  0  0  0  0
 26 13  1  0  0  0  0
 15 14  1  0  0  0  0
 16 15  1  0  0  0  0
 22 15  2  0  0  0  0
 17 16  2  0  0  0  0
 18 17  1  0  0  0  0
 25 17  1  0  0  0  0
 18 24  1  1  0  0  0
 20 19  2  0  0  0  0
 21 19  1  0  0  0  0
 30 29  1  0  0  0  0
 31 29  1  0  0  0  0
 33 32  1  0  0  0  0
 34 32  1  0  0  0  0
 28 37  1  0  0  0  0
 37 38  1  0  0  0  0
 37 39  2  0  0  0  0
 38 40  1  0  0  0  0
 40 41  1  0  0  0  0
 41 42  1  0  0  0  0
 41 43  1  0  0  0  0
 41 44  1  0  0  0  0
M  END

>  <ACTIVITY>
5.00
$$$$
77932
ChEBI
  Mrv0541 05041708502D          

 34 37  0  0  1  0            999 V2000
   -1.4289   -0.3397    0.0000 C   0  0  0  0  0  0  0  0  0  0  0  0
   -1.4289    0.4853    0.0000 C   0  0  0  0  0  0  0  0  0  0  0  0
    1.4289   -0.3397    0.0000 C   0  0  1  0  0  0  0  0  0  0  0  0
    1.4289    0.4853    0.0000 C   0  0  2  0  0  0  0  0  0  0  0  0
    0.7145   -0.7522    0.0000 C   0  0  0  0  0  0  0  0  0  0  0  0
    0.7145    0.8978    0.0000 C   0  0  0  0  0  0  0  0  0  0  0  0
    0.0000   -0.3397    0.0000 C   0  0  1  0  0  0  0  0  0  0  0  0
    0.0000    0.4853    0.0000 C   0  0  0  0  0  0  0  0  0  0  0  0
   -0.7145    0.8978    0.0000 C   0  0  0  0  0  0  0  0  0  0  0  0
   -0.7145   -0.7522    0.0000 C   0  0  2  0  0  0  0  0  0  0  0  0
    2.1434   -0.7522    0.0000 C   0  0  1  0  0  0  0  0  0  0  0  0
    2.1434    0.8978    0.0000 C   0  0  0  0  0  0  0  0  0  0  0  0
    1.4289    1.3103    0.0000 O   0  0  0  0  0  0  0  0  0  0  0  0
    2.8579   -0.3397    0.0000 C   0  0  0  0  0  0  0  0  0  0  0  0
    2.1434   -1.5772    0.0000 N   0  3  0  0  0  0  0  0  0  0  0  0
    0.7145    1.7228    0.0000 O   0  0  0  0  0  0  0  0  0  0  0  0
    2.8579    0.4853    0.0000 C   0  0  0  0  0  0  0  0  0  0  0  0
    2.1434    1.7228    0.0000 O   0  0  0  0  0  0  0  0  0  0  0  0
    3.5724   -0.7522    0.0000 O   0  5  0  0  0  0  0  0  0  0  0  0
    2.8579   -1.9897    0.0000 C   0  0  0  0  0  0  0  0  0  0  0  0
    1.4289   -1.9897    0.0000 C   0  0  0  0  0  0  0  0  0  0  0  0
    3.5724    0.8978    0.0000 C   0  0  0  0  0  0  0  0  0  0  0  0
   -0.7145    1.7228    0.0000 O   0  0  0  0  0  0  0  0  0  0  0  0
    4.2868    0.4853    0.0000 N   0  0  0  0  0  0  0  0  0  0  0  0
    3.5724    1.7228    0.0000 O   0  0  0  0  0  0  0  0  0  0  0  0
   -2.1434   -0.7522    0.0000 C   0  0  0  0  0  0  0  0  0  0  0  0
   -2.1434    0.8978    0.0000 C   0  0  0  0  0  0  0  0  0  0  0  0
   -2.8579   -0.3397    0.0000 C   0  0  0  0  0  0  0  0  0  0  0  0
   -2.8579    0.4853    0.0000 C   0  0  0  0  0  0  0  0  0  0  0  0
   -2.1434    1.7228    0.0000 O   0  0  0  0  0  0  0  0  0  0  0  0
   -1.4289   -1.1647    0.0000 O   0  0  0  0  0  0  0  0  0  0  0  0
   -0.7145   -1.5772    0.0000 C   0  0  0  0  0  0  0  0  0  0  0  0
    1.4289   -1.1647    0.0000 H   0  0  0  0  0  0  0  0  0  0  0  0
    0.0000   -1.1647    0.0000 H   0  0  0  0  0  0  0  0  0  0  0  0
  1 26  2  0  0  0  0
  1  2  1  0  0  0  0
  2 27  2  0  0  0  0
  3 11  1  0  0  0  0
  3  4  1  0  0  0  0
  4 12  1  0  0  0  0
  4 13  1  1  0  0  0
  3  5  1  0  0  0  0
  4  6  1  0  0  0  0
  6 16  1  0  0  0  0
  7  5  1  0  0  0  0
  7  8  1  0  0  0  0
  6  8  2  0  0  0  0
  8  9  1  0  0  0  0
  9  2  1  0  0  0  0
  9 23  2  0  0  0  0
  7 10  1  0  0  0  0
 10  1  1  0  0  0  0
 10 32  1  1  0  0  0
 10 31  1  6  0  0  0
 11 14  1  0  0  0  0
 11 15  1  1  0  0  0
 12 17  1  0  0  0  0
 12 18  2  0  0  0  0
 14 19  1  0  0  0  0
 14 17  2  0  0  0  0
 15 20  1  0  0  0  0
 15 21  1  0  0  0  0
 17 22  1  0  0  0  0
 22 24  1  0  0  0  0
 22 25  2  0  0  0  0
 26 28  1  0  0  0  0
 27 29  1  0  0  0  0
 27 30  1  0  0  0  0
 28 29  2  0  0  0  0
  3 33  1  1  0  0  0
  7 34  1  1  0  0  0
M  CHG  2  15   1  19  -1
M  END

>  <ACTIVITY>
5.00
$$$$
27902

  Mrv0541 05041708502D          

 34 37  0  0  1  0            999 V2000
   -1.4289   -0.3397    0.0000 C   0  0  0  0  0  0  0  0  0  0  0  0
   -1.4289    0.4853    0.0000 C   0  0  0  0  0  0  0  0  0  0  0  0
    1.4289   -0.3397    0.0000 C   0  0  1  0  0  0  0  0  0  0  0  0
    1.4289    0.4853    0.0000 C   0  0  2  0  0  0  0  0  0  0  0  0
    0.7145   -0.7522    0.0000 C   0  0  0  0  0  0  0  0  0  0  0  0
    0.7145    0.8978    0.0000 C   0  0  0  0  0  0  0  0  0  0  0  0
    0.0000   -0.3397    0.0000 C   0  0  1  0  0  0  0  0  0  0  0  0
    0.0000    0.4853    0.0000 C   0  0  0  0  0  0  0  0  0  0  0  0
   -0.7145    0.8978    0.0000 C   0  0  0  0  0  0  0  0  0  0  0  0
   -0.7145   -0.7522    0.0000 C   0  0  2  0  0  0  0  0  0  0  0  0
    2.1434   -0.7522    0.0000 C   0  0  1  0  0  0  0  0  0  0  0  0
    2.1434    0.8978    0.0000 C   0  0  0  0  0  0  0  0  0  0  0  0
    1.4289    1.3103    0.0000 O   0  0  0  0  0  0  0  0  0  0  0  0
    2.8579   -0.3397    0.0000 C   0  0  0  0  0  0  0  0  0  0  0  0
    2.1434   -1.5772    0.0000 N   0  0  0  0  0  0  0  0  0  0  0  0
    0.7145    1.7228    0.0000 O   0  0  0  0  0  0  0  0  0  0  0  0
    2.8579    0.4853    0.0000 C   0  0  0  0  0  0  0  0  0  0  0  0
    2.1434    1.7228    0.0000 O   0  0  0  0  0  0  0  0  0  0  0  0
    3.5724   -0.7522    0.0000 O   0  0  0  0  0  0  0  0  0  0  0  0
    2.8579   -1.9897    0.0000 C   0  0  0  0  0  0  0  0  0  0  0  0
    1.4289   -1.9897    0.0000 C   0  0  0  0  0  0  0  0  0  0  0  0
    3.5724    0.8978    0.0000 C   0  0  0  0  0  0  0  0  0  0  0  0
   -0.7145    1.7228    0.0000 O   0  0  0  0  0  0  0  0  0  0  0  0
    4.2868    0.4853    0.0000 N   0  0  0  0  0  0  0  0  0  0  0  0
    3.5724    1.7228    0.0000 O   0  0  0  0  0  0  0  0  0  0  0  0
   -2.1434   -0.7522    0.0000 C   0  0  0  0  0  0  0  0  0  0  0  0
   -2.1434    0.8978    0.0000 C   0  0  0  0  0  0  0  0  0  0  0  0
   -2.8579   -0.3397    0.0000 C   0  0  0  0  0  0  0  0  0  0  0  0
   -2.8579    0.4853    0.0000 C   0  0  0  0  0  0  0  0  0  0  0  0
   -2.1434    1.7228    0.0000 O   0  0  0  0  0  0  0  0  0  0  0  0
    1.4289   -1.1647    0.0000 H   0  0  0  0  0  0  0  0  0  0  0  0
    0.0000   -1.1647    0.0000 H   0  0  0  0  0  0  0  0  0  0  0  0
   -1.4289   -1.1647    0.0000 O   0  0  0  0  0  0  0  0  0  0  0  0
   -0.7145   -1.5772    0.0000 C   0  0  0  0  0  0  0  0  0  0  0  0
  1 26  2  0  0  0  0
  1  2  1  0  0  0  0
  2 27  2  0  0  0  0
  3 11  1  0  0  0  0
  3 31  1  1  0  0  0
  3  4  1  0  0  0  0
  4 12  1  0  0  0  0
  4 13  1  1  0  0  0
  3  5  1  0  0  0  0
  4  6  1  0  0  0  0
  6 16  1  0  0  0  0
  5  7  1  0  0  0  0
  7 32  1  1  0  0  0
  7  8  1  0  0  0  0
  6  8  2  0  0  0  0
  8  9  1  0  0  0  0
  9  2  1  0  0  0  0
  9 23  2  0  0  0  0
  7 10  1  0  0  0  0
 10  1  1  0  0  0  0
 10 34  1  1  0  0  0
 10 33  1  0  0  0  0
 11 14  1  0  0  0  0
 11 15  1  1  0  0  0
 12 17  1  0  0  0  0
 12 18  2  0  0  0  0
 14 19  1  0  0  0  0
 14 17  2  0  0  0  0
 15 20  1  0  0  0  0
 15 21  1  0  0  0  0
 17 22  1  0  0  0  0
 22 24  1  0  0  0  0
 22 25  2  0  0  0  0
 26 28  1  0  0  0  0
 27 29  1  0  0  0  0
 27 30  1  0  0  0  0
 28 29  2  0  0  0  0
M  END

>  <ACTIVITY>
5.00
$$$$
71392

  Mrv0541 05041708502D          

 34 37  0  0  1  0            999 V2000
   -1.4289   -0.3397    0.0000 C   0  0  0  0  0  0  0  0  0  0  0  0
   -1.4289    0.4853    0.0000 C   0  0  0  0  0  0  0  0  0  0  0  0
    1.4289   -0.3397    0.0000 C   0  0  1  0  0  0  0  0  0  0  0  0
    1.4289    0.4853    0.0000 C   0  0  2  0  0  0  0  0  0  0  0  0
    0.7145   -0.7522    0.0000 C   0  0  0  0  0  0  0  0  0  0  0  0
    0.7145    0.8978    0.0000 C   0  0  0  0  0  0  0  0  0  0  0  0
    0.0000   -0.3397    0.0000 C   0  0  1  0  0  0  0  0  0  0  0  0
    0.0000    0.4853    0.0000 C   0  0  0  0  0  0  0  0  0  0  0  0
   -0.7145    0.8978    0.0000 C   0  0  0  0  0  0  0  0  0  0  0  0
   -0.7145   -0.7522    0.0000 C   0  0  2  0  0  0  0  0  0  0  0  0
    2.1434   -0.7522    0.0000 C   0  0  1  0  0  0  0  0  0  0  0  0
    2.1434    0.8978    0.0000 C   0  0  0  0  0  0  0  0  0  0  0  0
    1.4289    1.3103    0.0000 O   0  0  0  0  0  0  0  0  0  0  0  0
    2.8579   -0.3397    0.0000 C   0  0  0  0  0  0  0  0  0  0  0  0
    2.1434   -1.5772    0.0000 N   0  3  0  0  0  0  0  0  0  0  0  0
    0.7145    1.7228    0.0000 O   0  5  0  0  0  0  0  0  0  0  0  0
    2.8579    0.4853    0.0000 C   0  0  0  0  0  0  0  0  0  0  0  0
    2.1434    1.7228    0.0000 O   0  0  0  0  0  0  0  0  0  0  0  0
    3.5724   -0.7522    0.0000 O   0  5  0  0  0  0  0  0  0  0  0  0
    2.8579   -1.9897    0.0000 C   0  0  0  0  0  0  0  0  0  0  0  0
    1.4289   -1.9897    0.0000 C   0  0  0  0  0  0  0  0  0  0  0  0
    3.5724    0.8978    0.0000 C   0  0  0  0  0  0  0  0  0  0  0  0
   -0.7145    1.7228    0.0000 O   0  0  0  0  0  0  0  0  0  0  0  0
    4.2868    0.4853    0.0000 N   0  0  0  0  0  0  0  0  0  0  0  0
    3.5724    1.7228    0.0000 O   0  0  0  0  0  0  0  0  0  0  0  0
   -2.1434   -0.7522    0.0000 C   0  0  0  0  0  0  0  0  0  0  0  0
   -2.1434    0.8978    0.0000 C   0  0  0  0  0  0  0  0  0  0  0  0
   -2.8579   -0.3397    0.0000 C   0  0  0  0  0  0  0  0  0  0  0  0
   -2.8579    0.4853    0.0000 C   0  0  0  0  0  0  0  0  0  0  0  0
   -2.1434    1.7228    0.0000 O   0  0  0  0  0  0  0  0  0  0  0  0
    1.4289   -1.1647    0.0000 H   0  0  0  0  0  0  0  0  0  0  0  0
    0.0000   -1.1647    0.0000 H   0  0  0  0  0  0  0  0  0  0  0  0
   -1.4289   -1.1647    0.0000 O   0  0  0  0  0  0  0  0  0  0  0  0
   -0.7145   -1.5772    0.0000 C   0  0  0  0  0  0  0  0  0  0  0  0
  1 26  2  0  0  0  0
  1  2  1  0  0  0  0
  2 27  2  0  0  0  0
  3 11  1  0  0  0  0
  3 31  1  1  0  0  0
  3  4  1  0  0  0  0
  4 12  1  0  0  0  0
  4 13  1  1  0  0  0
  3  5  1  0  0  0  0
  4  6  1  0  0  0  0
  6 16  1  0  0  0  0
  5  7  1  0  0  0  0
  7 32  1  1  0  0  0
  7  8  1  0  0  0  0
  6  8  2  0  0  0  0
  8  9  1  0  0  0  0
  9  2  1  0  0  0  0
  9 23  2  0  0  0  0
  7 10  1  0  0  0  0
 10  1  1  0  0  0  0
 10 34  1  1  0  0  0
 10 33  1  0  0  0  0
 11 14  1  0  0  0  0
 11 15  1  1  0  0  0
 12 17  1  0  0  0  0
 12 18  2  0  0  0  0
 14 19  1  0  0  0  0
 14 17  2  0  0  0  0
 15 20  1  0  0  0  0
 15 21  1  0  0  0  0
 17 22  1  0  0  0  0
 22 24  1  0  0  0  0
 22 25  2  0  0  0  0
 26 28  1  0  0  0  0
 27 29  1  0  0  0  0
 27 30  1  0  0  0  0
 28 29  2  0  0  0  0
M  CHG  3  15   1  16  -1  19  -1
M  END

>  <ACTIVITY>
5.00
$$$$
63334

  Mrv0541 05041708502D          

 40 44  0  0  1  0            999 V2000
    5.5374   -5.2470    0.0000 C   0  0  0  0  0  0  0  0  0  0  0  0
    5.5374   -4.4221    0.0000 C   0  0  0  0  0  0  0  0  0  0  0  0
    8.3951   -5.2470    0.0000 C   0  0  1  0  0  0  0  0  0  0  0  0
    8.3951   -4.4221    0.0000 C   0  0  2  0  0  0  0  0  0  0  0  0
    7.6807   -5.6596    0.0000 C   0  0  0  0  0  0  0  0  0  0  0  0
    7.6807   -4.0096    0.0000 C   0  0  0  0  0  0  0  0  0  0  0  0
    6.9662   -5.2470    0.0000 C   0  0  1  0  0  0  0  0  0  0  0  0
    6.9662   -4.4221    0.0000 C   0  0  0  0  0  0  0  0  0  0  0  0
    6.2518   -4.0096    0.0000 C   0  0  0  0  0  0  0  0  0  0  0  0
    6.2518   -5.6596    0.0000 C   0  0  2  0  0  0  0  0  0  0  0  0
    9.1096   -5.6596    0.0000 C   0  0  1  0  0  0  0  0  0  0  0  0
    9.1096   -4.0096    0.0000 C   0  0  0  0  0  0  0  0  0  0  0  0
    8.3951   -3.5971    0.0000 O   0  0  0  0  0  0  0  0  0  0  0  0
    9.8240   -5.2470    0.0000 C   0  0  0  0  0  0  0  0  0  0  0  0
    9.1096   -6.4846    0.0000 N   0  0  0  0  0  0  0  0  0  0  0  0
    7.6807   -3.1846    0.0000 O   0  0  0  0  0  0  0  0  0  0  0  0
    9.8240   -4.4221    0.0000 C   0  0  0  0  0  0  0  0  0  0  0  0
    9.1096   -3.1846    0.0000 O   0  0  0  0  0  0  0  0  0  0  0  0
   10.5386   -5.6596    0.0000 O   0  0  0  0  0  0  0  0  0  0  0  0
    9.8240   -6.8971    0.0000 C   0  0  0  0  0  0  0  0  0  0  0  0
    8.3951   -6.8971    0.0000 C   0  0  0  0  0  0  0  0  0  0  0  0
   10.5386   -4.0096    0.0000 C   0  0  0  0  0  0  0  0  0  0  0  0
    6.2518   -3.1846    0.0000 O   0  0  0  0  0  0  0  0  0  0  0  0
   11.2529   -4.4221    0.0000 N   0  0  0  0  0  0  0  0  0  0  0  0
   10.5386   -3.1846    0.0000 O   0  0  0  0  0  0  0  0  0  0  0  0
    4.8229   -5.6596    0.0000 C   0  0  0  0  0  0  0  0  0  0  0  0
    4.8229   -4.0096    0.0000 C   0  0  0  0  0  0  0  0  0  0  0  0
    4.1084   -5.2470    0.0000 C   0  0  0  0  0  0  0  0  0  0  0  0
    4.1084   -4.4221    0.0000 C   0  0  0  0  0  0  0  0  0  0  0  0
    4.8229   -3.1846    0.0000 O   0  0  0  0  0  0  0  0  0  0  0  0
    8.3951   -6.0721    0.0000 H   0  0  0  0  0  0  0  0  0  0  0  0
    6.9662   -6.0721    0.0000 H   0  0  0  0  0  0  0  0  0  0  0  0
    5.5374   -6.0721    0.0000 O   0  0  0  0  0  0  0  0  0  0  0  0
    6.2518   -6.4846    0.0000 C   0  0  0  0  0  0  0  0  0  0  0  0
   11.9674   -4.0096    0.0000 C   0  0  0  0  0  0  0  0  0  0  0  0
   12.6819   -4.4222    0.0000 N   0  0  0  0  0  0  0  0  0  0  0  0
   13.4356   -4.0866    0.0000 C   0  0  0  0  0  0  0  0  0  0  0  0
   12.7681   -5.2427    0.0000 C   0  0  0  0  0  0  0  0  0  0  0  0
   13.9876   -4.6998    0.0000 C   0  0  0  0  0  0  0  0  0  0  0  0
   13.5752   -5.4142    0.0000 C   0  0  0  0  0  0  0  0  0  0  0  0
  1 26  2  0  0  0  0
  1  2  1  0  0  0  0
  2 27  2  0  0  0  0
  3 11  1  0  0  0  0
  3 31  1  1  0  0  0
  3  4  1  0  0  0  0
  4 12  1  0  0  0  0
  4 13  1  1  0  0  0
  3  5  1  0  0  0  0
  4  6  1  0  0  0  0
  6 16  1  0  0  0  0
  5  7  1  0  0  0  0
  7 32  1  1  0  0  0
  7  8  1  0  0  0  0
  6  8  2  0  0  0  0
  8  9  1  0  0  0  0
  9  2  1  0  0  0  0
  9 23  2  0  0  0  0
  7 10  1  0  0  0  0
 10  1  1  0  0  0  0
 10 34  1  1  0  0  0
 10 33  1  0  0  0  0
 11 14  1  0  0  0  0
 11 15  1  1  0  0  0
 12 17  1  0  0  0  0
 12 18  2  0  0  0  0
 14 19  1  0  0  0  0
 14 17  2  0  0  0  0
 15 20  1  0  0  0  0
 15 21  1  0  0  0  0
 17 22  1  0  0  0  0
 22 24  1  0  0  0  0
 22 25  2  0  0  0  0
 26 28  1  0  0  0  0
 27 29  1  0  0  0  0
 27 30  1  0  0  0  0
 28 29  2  0  0  0  0
 24 35  1  0  0  0  0
 37 36  1  0  0  0  0
 38 36  1  0  0  0  0
 39 37  1  0  0  0  0
 40 38  1  0  0  0  0
 40 39  1  0  0  0  0
 35 36  1  0  0  0  0
M  END

>  <ACTIVITY>
5.00
$$$$
59040
 
  Mrv0541 05041708502D          

 45 48  0  0  1  0            999 V2000
    7.3427  -15.5203    0.0000 C   0  0  0  0  0  0  0  0  0  0  0  0
    7.3427  -14.6953    0.0000 C   0  0  0  0  0  0  0  0  0  0  0  0
    8.0571  -14.2828    0.0000 C   0  0  0  0  0  0  0  0  0  0  0  0
    8.7717  -14.6953    0.0000 C   0  0  0  0  0  0  0  0  0  0  0  0
    8.7717  -15.5203    0.0000 C   0  0  0  0  0  0  0  0  0  0  0  0
    8.0571  -15.9328    0.0000 C   0  0  0  0  0  0  0  0  0  0  0  0
    9.4861  -14.2828    0.0000 C   0  0  0  0  0  0  0  0  0  0  0  0
   10.2006  -14.6953    0.0000 C   0  0  0  0  0  0  0  0  0  0  0  0
   10.2006  -15.5203    0.0000 C   0  0  1  0  0  0  0  0  0  0  0  0
    9.4861  -15.9328    0.0000 C   0  0  1  0  0  0  0  0  0  0  0  0
   10.9151  -14.2828    0.0000 C   0  0  0  0  0  0  0  0  0  0  0  0
   11.6296  -14.6953    0.0000 C   0  0  1  0  0  0  0  0  0  0  0  0
   11.6296  -15.5203    0.0000 C   0  0  1  0  0  0  0  0  0  0  0  0
   10.9151  -15.9328    0.0000 C   0  0  0  0  0  0  0  0  0  0  0  0
   12.3440  -14.2828    0.0000 C   0  0  0  0  0  0  0  0  0  0  0  0
   13.0586  -14.6953    0.0000 C   0  0  0  0  0  0  0  0  0  0  0  0
   13.0586  -15.5203    0.0000 C   0  0  0  0  0  0  0  0  0  0  0  0
   12.3440  -15.9328    0.0000 C   0  0  1  0  0  0  0  0  0  0  0  0
    8.0571  -13.4579    0.0000 O   0  0  0  0  0  0  0  0  0  0  0  0
    9.4861  -13.4578    0.0000 O   0  0  0  0  0  0  0  0  0  0  0  0
   10.9151  -13.4579    0.0000 O   0  0  0  0  0  0  0  0  0  0  0  0
   12.3440  -13.4578    0.0000 O   0  0  0  0  0  0  0  0  0  0  0  0
   13.7864  -15.9407    0.0000 O   0  0  0  0  0  0  0  0  0  0  0  0
   13.7864  -14.2749    0.0000 C   0  0  0  0  0  0  0  0  0  0  0  0
   14.4979  -14.6855    0.0000 N   0  0  0  0  0  0  0  0  0  0  0  0
   13.7862  -13.4578    0.0000 O   0  0  0  0  0  0  0  0  0  0  0  0
   15.1939  -14.2834    0.0000 C   0  0  0  0  0  0  0  0  0  0  0  0
   15.8979  -14.6899    0.0000 N   0  0  0  0  0  0  0  0  0  0  0  0
   16.5978  -14.2857    0.0000 C   0  0  0  0  0  0  0  0  0  0  0  0
   17.2998  -14.6910    0.0000 C   0  0  0  0  0  0  0  0  0  0  0  0
   18.0006  -14.2862    0.0000 C   0  0  0  0  0  0  0  0  0  0  0  0
   18.7022  -14.6913    0.0000 C   0  0  0  0  0  0  0  0  0  0  0  0
   19.4032  -14.2864    0.0000 C   0  0  2  0  0  0  0  0  0  0  0  0
   20.1047  -14.6913    0.0000 N   0  0  0  0  0  0  0  0  0  0  0  0
   19.4032  -13.4579    0.0000 C   0  0  0  0  0  0  0  0  0  0  0  0
   18.6773  -13.0386    0.0000 O   0  0  0  0  0  0  0  0  0  0  0  0
   20.1062  -13.0519    0.0000 O   0  0  0  0  0  0  0  0  0  0  0  0
    9.4861  -16.7578    0.0000 C   0  0  0  0  0  0  0  0  0  0  0  0
    8.7728  -16.3446    0.0000 O   0  0  0  0  0  0  0  0  0  0  0  0
   10.1952  -16.3446    0.0000 H   0  0  0  0  0  0  0  0  0  0  0  0
   11.6296  -16.3453    0.0000 H   0  0  0  0  0  0  0  0  0  0  0  0
   12.3440  -16.7578    0.0000 N   0  0  0  0  0  0  0  0  0  0  0  0
   11.6220  -17.1747    0.0000 C   0  0  0  0  0  0  0  0  0  0  0  0
   13.0510  -17.1660    0.0000 C   0  0  0  0  0  0  0  0  0  0  0  0
   11.6296  -13.8703    0.0000 O   0  0  0  0  0  0  0  0  0  0  0  0
  1  2  2  0  0  0  0
  2  3  1  0  0  0  0
  3  4  2  0  0  0  0
  4  5  1  0  0  0  0
  5  6  2  0  0  0  0
  1  6  1  0  0  0  0
  4  7  1  0  0  0  0
  7  8  1  0  0  0  0
  8  9  1  0  0  0  0
  9 10  1  0  0  0  0
  5 10  1  0  0  0  0
  8 11  2  0  0  0  0
 11 12  1  0  0  0  0
 12 13  1  0  0  0  0
 13 14  1  0  0  0  0
  9 14  1  0  0  0  0
 12 15  1  0  0  0  0
 15 16  1  0  0  0  0
 16 17  2  0  0  0  0
 17 18  1  0  0  0  0
 13 18  1  0  0  0  0
  3 19  1  0  0  0  0
  7 20  2  0  0  0  0
 11 21  1  0  0  0  0
 15 22  2  0  0  0  0
 17 23  1  0  0  0  0
 16 24  1  0  0  0  0
 24 25  1  0  0  0  0
 24 26  2  0  0  0  0
 25 27  1  0  0  0  0
 27 28  1  0  0  0  0
 28 29  1  0  0  0  0
 29 30  1  0  0  0  0
 30 31  1  0  0  0  0
 31 32  1  0  0  0  0
 32 33  1  0  0  0  0
 33 34  1  0  0  0  0
 33 35  1  1  0  0  0
 35 36  2  0  0  0  0
 35 37  1  0  0  0  0
 10 38  1  1  0  0  0
 10 39  1  6  0  0  0
  9 40  1  1  0  0  0
 13 41  1  1  0  0  0
 18 42  1  1  0  0  0
 42 43  1  0  0  0  0
 42 44  1  0  0  0  0
 12 45  1  1  0  0  0
M  END

>  <ACTIVITY>
5.00
$$$$
75262

  Mrv0541 05041708502D          

 44 48  0  0  1  0            999 V2000
   -0.0208   -4.9593    0.0000 C   0  0  0  0  0  0  0  0  0  0  0  0
   -0.0208   -5.7957    0.0000 C   0  0  0  0  0  0  0  0  0  0  0  0
    0.7320   -6.2140    0.0000 C   0  0  0  0  0  0  0  0  0  0  0  0
    1.4431   -5.7957    0.0000 C   0  0  0  0  0  0  0  0  0  0  0  0
    1.4431   -4.9593    0.0000 C   0  0  0  0  0  0  0  0  0  0  0  0
    0.7320   -4.5410    0.0000 C   0  0  0  0  0  0  0  0  0  0  0  0
    2.1541   -6.2140    0.0000 C   0  0  0  0  0  0  0  0  0  0  0  0
    2.9070   -5.7957    0.0000 C   0  0  0  0  0  0  0  0  0  0  0  0
    2.9070   -4.9593    0.0000 C   0  0  1  0  0  0  0  0  0  0  0  0
    2.1541   -4.5410    0.0000 C   0  0  1  0  0  0  0  0  0  0  0  0
    3.6179   -6.2140    0.0000 C   0  0  0  0  0  0  0  0  0  0  0  0
    4.3290   -5.7957    0.0000 C   0  0  1  0  0  0  0  0  0  0  0  0
    4.3290   -4.9593    0.0000 C   0  0  1  0  0  0  0  0  0  0  0  0
    3.6179   -4.5410    0.0000 C   0  0  0  0  0  0  0  0  0  0  0  0
    5.0819   -6.2140    0.0000 C   0  0  0  0  0  0  0  0  0  0  0  0
    5.7929   -5.7957    0.0000 C   0  0  0  0  0  0  0  0  0  0  0  0
    5.7929   -4.9593    0.0000 C   0  0  0  0  0  0  0  0  0  0  0  0
    5.0819   -4.5410    0.0000 C   0  0  1  0  0  0  0  0  0  0  0  0
    0.7320   -7.0505    0.0000 O   0  0  0  0  0  0  0  0  0  0  0  0
    3.6179   -7.0505    0.0000 O   0  0  0  0  0  0  0  0  0  0  0  0
    2.1541   -7.0505    0.0000 O   0  0  0  0  0  0  0  0  0  0  0  0
    5.0819   -7.0505    0.0000 O   0  0  0  0  0  0  0  0  0  0  0  0
    6.5040   -6.2140    0.0000 C   0  0  0  0  0  0  0  0  0  0  0  0
    7.2568   -5.7957    0.0000 N   0  0  0  0  0  0  0  0  0  0  0  0
    6.5040   -4.5410    0.0000 O   0  0  0  0  0  0  0  0  0  0  0  0
    6.5040   -7.0505    0.0000 O   0  0  0  0  0  0  0  0  0  0  0  0
    7.9679   -6.2140    0.0000 C   0  0  0  0  0  0  0  0  0  0  0  0
    8.6789   -5.8376    0.0000 N   0  0  0  0  0  0  0  0  0  0  0  0
    9.3900   -6.2140    0.0000 C   0  0  0  0  0  0  0  0  0  0  0  0
   10.1010   -5.7957    0.0000 C   0  0  0  0  0  0  0  0  0  0  0  0
   10.1010   -4.9593    0.0000 N   0  0  0  0  0  0  0  0  0  0  0  0
    9.3900   -4.5410    0.0000 C   0  0  0  0  0  0  0  0  0  0  0  0
    8.6789   -4.9593    0.0000 C   0  0  0  0  0  0  0  0  0  0  0  0
   10.8538   -4.5410    0.0000 C   0  0  0  0  0  0  0  0  0  0  0  0
   11.5649   -4.9593    0.0000 C   0  0  0  0  0  0  0  0  0  0  0  0
   12.2759   -4.5410    0.0000 O   0  0  0  0  0  0  0  0  0  0  0  0
    5.0819   -3.7045    0.0000 N   0  0  0  0  0  0  0  0  0  0  0  0
    4.3290   -3.2863    0.0000 C   0  0  0  0  0  0  0  0  0  0  0  0
    5.7929   -3.2863    0.0000 C   0  0  0  0  0  0  0  0  0  0  0  0
    4.3290   -6.6323    0.0000 O   0  0  0  0  0  0  0  0  0  0  0  0
    4.3290   -4.1227    0.0000 H   0  0  0  0  0  0  0  0  0  0  0  0
    2.9070   -4.1227    0.0000 H   0  0  0  0  0  0  0  0  0  0  0  0
    2.1541   -3.7045    0.0000 C   0  0  0  0  0  0  0  0  0  0  0  0
    1.4431   -4.1227    0.0000 O   0  0  0  0  0  0  0  0  0  0  0  0
  1  2  2  0  0  0  0
  2  3  1  0  0  0  0
  3  4  2  0  0  0  0
  4  5  1  0  0  0  0
  5  6  2  0  0  0  0
  1  6  1  0  0  0  0
  4  7  1  0  0  0  0
  7  8  1  0  0  0  0
  8  9  1  0  0  0  0
  9 10  1  0  0  0  0
  5 10  1  0  0  0  0
  8 11  2  0  0  0  0
 11 12  1  0  0  0  0
 12 13  1  0  0  0  0
 13 14  1  0  0  0  0
  9 14  1  0  0  0  0
 12 15  1  0  0  0  0
 15 16  1  0  0  0  0
 16 17  2  0  0  0  0
 17 18  1  0  0  0  0
 13 18  1  0  0  0  0
  3 19  1  0  0  0  0
 11 20  1  0  0  0  0
  7 21  2  0  0  0  0
 15 22  2  0  0  0  0
 16 23  1  0  0  0  0
 23 24  1  0  0  0  0
 17 25  1  0  0  0  0
 23 26  2  0  0  0  0
 24 27  1  0  0  0  0
 27 28  1  0  0  0  0
 28 29  1  0  0  0  0
 29 30  1  0  0  0  0
 30 31  1  0  0  0  0
 31 32  1  0  0  0  0
 32 33  1  0  0  0  0
 28 33  1  0  0  0  0
 31 34  1  0  0  0  0
 34 35  1  0  0  0  0
 35 36  1  0  0  0  0
 18 37  1  6  0  0  0
 37 38  1  0  0  0  0
 37 39  1  0  0  0  0
 12 40  1  6  0  0  0
 13 41  1  6  0  0  0
  9 42  1  6  0  0  0
 10 43  1  6  0  0  0
 10 44  1  1  0  0  0
M  END

>  <ACTIVITY>
5.00
$$$$
15808
ChEBI
  Mrv0541 05041708502D          

 33 36  0  0  1  0            999 V2000
    4.8632   -3.2056    0.0000 C   0  0  0  0  0  0  0  0  0  0  0  0
    4.8632   -4.0306    0.0000 C   0  0  0  0  0  0  0  0  0  0  0  0
    4.1088   -2.8049    0.0000 C   0  0  1  0  0  0  0  0  0  0  0  0
    4.1088   -4.4313    0.0000 C   0  0  0  0  0  0  0  0  0  0  0  0
    5.5468   -4.4313    0.0000 C   0  0  0  0  0  0  0  0  0  0  0  0
    5.5468   -2.8049    0.0000 C   0  0  0  0  0  0  0  0  0  0  0  0
    3.4253   -4.0306    0.0000 C   0  0  0  0  0  0  0  0  0  0  0  0
    6.3010   -4.0306    0.0000 C   0  0  1  0  0  0  0  0  0  0  0  0
    3.4253   -3.2056    0.0000 C   0  0  0  0  0  0  0  0  0  0  0  0
    2.7417   -4.4313    0.0000 C   0  0  0  0  0  0  0  0  0  0  0  0
    2.7417   -2.8049    0.0000 C   0  0  0  0  0  0  0  0  0  0  0  0
    6.9846   -4.4313    0.0000 C   0  0  0  0  0  0  0  0  0  0  0  0
    6.9846   -2.8049    0.0000 C   0  0  1  0  0  0  0  0  0  0  0  0
    7.6447   -3.2056    0.0000 C   0  0  0  0  0  0  0  0  0  0  0  0
    7.6447   -4.0306    0.0000 C   0  0  0  0  0  0  0  0  0  0  0  0
    1.9873   -3.2056    0.0000 C   0  0  0  0  0  0  0  0  0  0  0  0
    1.9873   -4.0306    0.0000 C   0  0  0  0  0  0  0  0  0  0  0  0
    8.3518   -4.4313    0.0000 C   0  0  0  0  0  0  0  0  0  0  0  0
    8.3754   -5.2563    0.0000 O   0  0  0  0  0  0  0  0  0  0  0  0
    9.0590   -4.0306    0.0000 N   0  0  0  0  0  0  0  0  0  0  0  0
    6.9846   -1.9798    0.0000 N   0  0  0  0  0  0  0  0  0  0  0  0
    7.6683   -1.5791    0.0000 C   0  0  0  0  0  0  0  0  0  0  0  0
    6.2539   -1.5791    0.0000 C   0  0  0  0  0  0  0  0  0  0  0  0
    8.3518   -2.8049    0.0000 O   0  0  0  0  0  0  0  0  0  0  0  0
    4.5566   -1.9798    0.0000 O   0  0  0  0  0  0  0  0  0  0  0  0
    2.7653   -5.2563    0.0000 O   0  0  0  0  0  0  0  0  0  0  0  0
    6.2775   -4.8556    0.0000 O   0  0  0  0  0  0  0  0  0  0  0  0
    3.5902   -2.0270    0.0000 C   0  0  0  0  0  0  0  0  0  0  0  0
    6.9846   -5.2563    0.0000 O   0  0  0  0  0  0  0  0  0  0  0  0
    4.0853   -5.2563    0.0000 O   0  0  0  0  0  0  0  0  0  0  0  0
    5.5232   -5.2563    0.0000 O   0  0  0  0  0  0  0  0  0  0  0  0
    6.3010   -3.2056    0.0000 C   0  0  2  0  0  0  0  0  0  0  0  0
    6.3010   -2.3806    0.0000 H   0  0  0  0  0  0  0  0  0  0  0  0
  2  1  2  0  0  0  0
  3  1  1  0  0  0  0
  6  1  1  0  0  0  0
  4  2  1  0  0  0  0
  5  2  1  0  0  0  0
  9  3  1  0  0  0  0
  3 25  1  1  0  0  0
  3 28  1  6  0  0  0
  7  4  1  0  0  0  0
 30  4  2  0  0  0  0
  8  5  1  0  0  0  0
 31  5  2  0  0  0  0
 32  6  1  0  0  0  0
  9  7  2  0  0  0  0
 10  7  1  0  0  0  0
 32  8  1  0  0  0  0
 12  8  1  0  0  0  0
  8 27  1  6  0  0  0
 13 32  1  0  0  0  0
 11  9  1  0  0  0  0
 17 10  2  0  0  0  0
 26 10  1  0  0  0  0
 16 11  2  0  0  0  0
 15 12  1  0  0  0  0
 29 12  2  0  0  0  0
 14 13  1  0  0  0  0
 13 21  1  6  0  0  0
 15 14  2  0  0  0  0
 24 14  1  0  0  0  0
 18 15  1  0  0  0  0
 17 16  1  0  0  0  0
 19 18  2  0  0  0  0
 20 18  1  0  0  0  0
 22 21  1  0  0  0  0
 23 21  1  0  0  0  0
 32 33  1  6  0  0  0
M  END

>  <ACTIVITY>
5.00
$$$$
6805

  Mrv0541 05041708502D          

 34 37  0  0  1  0            999 V2000
   11.1730   -5.9979    0.0000 C   0  0  1  0  0  0  0  0  0  0  0  0
   11.1830   -5.1959    0.0000 C   0  0  2  0  0  0  0  0  0  0  0  0
   10.4384   -6.4031    0.0000 C   0  0  2  0  0  0  0  0  0  0  0  0
   11.8950   -6.4400    0.0000 C   0  0  1  0  0  0  0  0  0  0  0  0
   10.4776   -4.7781    0.0000 C   0  0  0  0  0  0  0  0  0  0  0  0
   11.9329   -4.7539    0.0000 C   0  0  0  0  0  0  0  0  0  0  0  0
   11.1830   -4.3709    0.0000 O   0  0  0  0  0  0  0  0  0  0  0  0
    9.7287   -5.9969    0.0000 C   0  0  1  0  0  0  0  0  0  0  0  0
   10.4384   -7.2280    0.0000 O   0  0  0  0  0  0  0  0  0  0  0  0
   12.6413   -6.0196    0.0000 C   0  0  0  0  0  0  0  0  0  0  0  0
   11.8950   -7.2648    0.0000 N   0  0  0  0  0  0  0  0  0  0  0  0
    9.7358   -5.1718    0.0000 C   0  0  0  0  0  0  0  0  0  0  0  0
   10.4776   -3.9533    0.0000 O   0  0  0  0  0  0  0  0  0  0  0  0
   12.6478   -5.2074    0.0000 C   0  0  0  0  0  0  0  0  0  0  0  0
   11.9329   -3.9289    0.0000 O   0  0  0  0  0  0  0  0  0  0  0  0
    9.0075   -6.4020    0.0000 C   0  0  0  0  0  0  0  0  0  0  0  0
   13.3571   -6.4320    0.0000 O   0  0  0  0  0  0  0  0  0  0  0  0
   12.6026   -7.6724    0.0000 C   0  0  0  0  0  0  0  0  0  0  0  0
   11.1749   -7.6779    0.0000 C   0  0  0  0  0  0  0  0  0  0  0  0
    9.0370   -4.7464    0.0000 C   0  0  0  0  0  0  0  0  0  0  0  0
   13.3637   -4.7949    0.0000 C   0  0  0  0  0  0  0  0  0  0  0  0
    8.3038   -5.9840    0.0000 C   0  0  0  0  0  0  0  0  0  0  0  0
    8.3038   -5.1590    0.0000 C   0  0  0  0  0  0  0  0  0  0  0  0
    9.0370   -3.9214    0.0000 O   0  0  0  0  0  0  0  0  0  0  0  0
   14.0834   -5.2119    0.0000 N   0  0  0  0  0  0  0  0  0  0  0  0
   13.3637   -3.9748    0.0000 O   0  0  0  0  0  0  0  0  0  0  0  0
    7.5874   -6.3850    0.0000 C   0  0  0  0  0  0  0  0  0  0  0  0
    7.6190   -4.7464    0.0000 C   0  0  0  0  0  0  0  0  0  0  0  0
    6.8731   -5.9737    0.0000 C   0  0  0  0  0  0  0  0  0  0  0  0
    6.8731   -5.1474    0.0000 C   0  0  0  0  0  0  0  0  0  0  0  0
    7.6190   -3.9216    0.0000 O   0  0  0  0  0  0  0  0  0  0  0  0
   11.1730   -6.8225    0.0000 H   0  0  0  0  0  0  0  0  0  0  0  0
    9.7287   -6.8218    0.0000 H   0  0  0  0  0  0  0  0  0  0  0  0
    8.9975   -7.2268    0.0000 C   0  0  0  0  0  0  0  0  0  0  0  0
  1  2  1  0  0  0  0
  1  3  1  0  0  0  0
  1  4  1  0  0  0  0
  2  5  1  0  0  0  0
  2  6  1  0  0  0  0
  2  7  1  1  0  0  0
  3  8  1  0  0  0  0
  3  9  1  1  0  0  0
  4 10  1  0  0  0  0
  4 11  1  1  0  0  0
  5 12  2  0  0  0  0
  5 13  1  0  0  0  0
  6 14  1  0  0  0  0
  6 15  2  0  0  0  0
  8 16  1  0  0  0  0
 10 17  1  0  0  0  0
 11 18  1  0  0  0  0
 11 19  1  0  0  0  0
 12 20  1  0  0  0  0
 14 21  1  0  0  0  0
 16 22  1  0  0  0  0
 20 23  1  0  0  0  0
 20 24  2  0  0  0  0
 21 25  1  0  0  0  0
 21 26  2  0  0  0  0
 22 27  1  0  0  0  0
 23 28  1  0  0  0  0
 27 29  2  0  0  0  0
 28 30  2  0  0  0  0
 28 31  1  0  0  0  0
  8 12  1  0  0  0  0
 10 14  2  0  0  0  0
 22 23  2  0  0  0  0
 29 30  1  0  0  0  0
  1 32  1  1  0  0  0
  8 33  1  1  0  0  0
 16 34  2  0  0  0  0
M  END

>  <ACTIVITY>
5.00
$$$$
85616

  Mrv0541 05041708502D          

 41 46  0  0  1  0            999 V2000
    6.8728   -2.2580    0.0000 C   0  0  2  0  0  0  0  0  0  0  0  0
    6.6308   -3.1675    0.0000 C   0  0  0  0  0  0  0  0  0  0  0  0
    7.1859   -1.4941    0.0000 C   0  0  0  0  0  0  0  0  0  0  0  0
    7.8147   -2.2567    0.0000 C   0  0  0  0  0  0  0  0  0  0  0  0
    6.0549   -2.3674    0.0000 C   0  0  0  0  0  0  0  0  0  0  0  0
    7.3461   -3.5785    0.0000 C   0  0  0  0  0  0  0  0  0  0  0  0
    5.9184   -3.5813    0.0000 C   0  0  0  0  0  0  0  0  0  0  0  0
    6.6831   -0.8409    0.0000 C   0  0  0  0  0  0  0  0  0  0  0  0
    7.8832   -1.9368    0.0000 C   0  0  0  0  0  0  0  0  0  0  0  0
    7.7425   -0.8860    0.0000 C   0  0  0  0  0  0  0  0  0  0  0  0
    8.0604   -3.1658    0.0000 C   0  0  0  0  0  0  0  0  0  0  0  0
    5.5522   -1.7142    0.0000 C   0  0  0  0  0  0  0  0  0  0  0  0
    5.8648   -2.9635    0.0000 C   0  0  0  0  0  0  0  0  0  0  0  0
    7.3493   -4.4034    0.0000 C   0  0  0  0  0  0  0  0  0  0  0  0
    5.9184   -4.4071    0.0000 C   0  0  0  0  0  0  0  0  0  0  0  0
    5.2011   -3.1691    0.0000 O   0  0  0  0  0  0  0  0  0  0  0  0
    5.8672   -0.9515    0.0000 C   0  0  0  0  0  0  0  0  0  0  0  0
    8.7737   -3.5758    0.0000 C   0  0  0  0  0  0  0  0  0  0  0  0
    8.0626   -4.8133    0.0000 C   0  0  0  0  0  0  0  0  0  0  0  0
    6.6339   -4.8182    0.0000 C   0  0  0  0  0  0  0  0  0  0  0  0
    4.4877   -3.5849    0.0000 C   0  0  0  0  0  0  0  0  0  0  0  0
    8.7768   -4.4006    0.0000 C   0  0  0  0  0  0  0  0  0  0  0  0
    9.4891   -3.1610    0.0000 C   0  0  1  0  0  0  0  0  0  0  0  0
    8.0645   -5.6402    0.0000 O   0  0  0  0  0  0  0  0  0  0  0  0
    6.6381   -5.6411    0.0000 O   0  0  0  0  0  0  0  0  0  0  0  0
    9.4922   -4.8117    0.0000 C   0  0  0  0  0  0  0  0  0  0  0  0
   10.2045   -3.5721    0.0000 C   0  0  2  0  0  0  0  0  0  0  0  0
    9.4860   -2.3362    0.0000 O   0  0  0  0  0  0  0  0  0  0  0  0
   10.2045   -4.3979    0.0000 C   0  0  1  0  0  0  0  0  0  0  0  0
    9.4934   -5.6354    0.0000 O   0  0  0  0  0  0  0  0  0  0  0  0
   10.9167   -3.1583    0.0000 C   0  0  0  0  0  0  0  0  0  0  0  0
   10.2015   -2.7472    0.0000 O   0  0  0  0  0  0  0  0  0  0  0  0
   10.9199   -4.8089    0.0000 C   0  0  0  0  0  0  0  0  0  0  0  0
   10.2076   -5.2228    0.0000 O   0  0  0  0  0  0  0  0  0  0  0  0
   11.6321   -3.5693    0.0000 C   0  0  0  0  0  0  0  0  0  0  0  0
   11.6353   -4.3943    0.0000 C   0  0  0  0  0  0  0  0  0  0  0  0
   10.9230   -5.6338    0.0000 O   0  0  0  0  0  0  0  0  0  0  0  0
   12.3475   -3.1546    0.0000 O   0  0  0  0  0  0  0  0  0  0  0  0
   12.3507   -4.8053    0.0000 C   0  0  0  0  0  0  0  0  0  0  0  0
   12.3538   -5.6302    0.0000 O   0  0  0  0  0  0  0  0  0  0  0  0
   13.0660   -4.3905    0.0000 N   0  0  0  0  0  0  0  0  0  0  0  0
  1  2  1  0  0  0  0
  1  3  1  0  0  0  0
  1  4  1  0  0  0  0
  1  5  1  1  0  0  0
  2  6  1  0  0  0  0
  2  7  2  0  0  0  0
  3  8  1  0  0  0  0
  3  9  1  0  0  0  0
  3 10  1  0  0  0  0
  4 11  1  0  0  0  0
  5 12  2  0  0  0  0
  5 13  1  0  0  0  0
  6 11  1  0  0  0  0
  6 14  2  0  0  0  0
  7 15  1  0  0  0  0
  7 16  1  0  0  0  0
  8 17  1  0  0  0  0
 11 18  2  0  0  0  0
 12 17  1  0  0  0  0
 14 19  1  0  0  0  0
 14 20  1  0  0  0  0
 15 20  2  0  0  0  0
 16 21  1  0  0  0  0
 18 22  1  0  0  0  0
 18 23  1  0  0  0  0
 19 22  2  0  0  0  0
 19 24  1  0  0  0  0
 20 25  1  0  0  0  0
 22 26  1  0  0  0  0
 23 27  1  0  0  0  0
 23 28  1  6  0  0  0
 26 29  1  0  0  0  0
 26 30  2  0  0  0  0
 27 29  1  0  0  0  0
 27 31  1  0  0  0  0
 27 32  1  6  0  0  0
 29 33  1  0  0  0  0
 29 34  1  6  0  0  0
 31 35  1  0  0  0  0
 33 36  1  0  0  0  0
 33 37  2  0  0  0  0
 35 36  2  0  0  0  0
 35 38  1  0  0  0  0
 36 39  1  0  0  0  0
 39 40  2  0  0  0  0
 39 41  1  0  0  0  0
M  END

>  <ACTIVITY>
5.00
$$$$
134017

  Mrv0541 05041708502D          

 35 38  0  0  1  0            999 V2000
    7.5665   -5.0585    0.0000 C   0  0  0  0  0  0  0  0  0  0  0  0
    7.5665   -4.2335    0.0000 C   0  0  0  0  0  0  0  0  0  0  0  0
   10.4243   -5.0585    0.0000 C   0  0  1  0  0  0  0  0  0  0  0  0
   10.4243   -4.2335    0.0000 C   0  0  2  0  0  0  0  0  0  0  0  0
    9.7099   -5.4710    0.0000 C   0  0  0  0  0  0  0  0  0  0  0  0
    9.7099   -3.8210    0.0000 C   0  0  0  0  0  0  0  0  0  0  0  0
    8.9954   -5.0585    0.0000 C   0  0  1  0  0  0  0  0  0  0  0  0
    8.9954   -4.2335    0.0000 C   0  0  2  0  0  0  0  0  0  0  0  0
    8.2809   -3.8210    0.0000 C   0  0  0  0  0  0  0  0  0  0  0  0
    8.2809   -5.4710    0.0000 C   0  0  2  0  0  0  0  0  0  0  0  0
   11.1388   -5.4710    0.0000 C   0  0  1  0  0  0  0  0  0  0  0  0
   11.1388   -3.8210    0.0000 C   0  0  0  0  0  0  0  0  0  0  0  0
   10.4243   -3.4085    0.0000 O   0  0  0  0  0  0  0  0  0  0  0  0
   11.8533   -5.0585    0.0000 C   0  0  0  0  0  0  0  0  0  0  0  0
   11.1388   -6.2960    0.0000 N   0  0  0  0  0  0  0  0  0  0  0  0
    9.7099   -2.9960    0.0000 O   0  0  0  0  0  0  0  0  0  0  0  0
   11.8533   -4.2335    0.0000 C   0  0  0  0  0  0  0  0  0  0  0  0
   11.1388   -2.9960    0.0000 O   0  0  0  0  0  0  0  0  0  0  0  0
   12.5678   -5.4710    0.0000 O   0  0  0  0  0  0  0  0  0  0  0  0
   11.8533   -6.7085    0.0000 C   0  0  0  0  0  0  0  0  0  0  0  0
   10.4243   -6.7085    0.0000 C   0  0  0  0  0  0  0  0  0  0  0  0
   12.5678   -3.8210    0.0000 C   0  0  0  0  0  0  0  0  0  0  0  0
    8.2809   -2.9960    0.0000 O   0  0  0  0  0  0  0  0  0  0  0  0
   13.2822   -4.2335    0.0000 N   0  0  0  0  0  0  0  0  0  0  0  0
   12.5678   -2.9960    0.0000 O   0  0  0  0  0  0  0  0  0  0  0  0
    6.8520   -5.4710    0.0000 C   0  0  0  0  0  0  0  0  0  0  0  0
    6.8520   -3.8210    0.0000 C   0  0  0  0  0  0  0  0  0  0  0  0
    6.1375   -5.0585    0.0000 C   0  0  0  0  0  0  0  0  0  0  0  0
    6.1375   -4.2335    0.0000 C   0  0  0  0  0  0  0  0  0  0  0  0
    6.8520   -2.9960    0.0000 O   0  0  0  0  0  0  0  0  0  0  0  0
    7.5665   -5.8835    0.0000 O   0  0  0  0  0  0  0  0  0  0  0  0
    8.2809   -6.2960    0.0000 C   0  0  0  0  0  0  0  0  0  0  0  0
   10.4243   -5.8835    0.0000 H   0  0  0  0  0  0  0  0  0  0  0  0
    8.9954   -5.8835    0.0000 H   0  0  0  0  0  0  0  0  0  0  0  0
    8.9954   -3.4085    0.0000 O   0  0  0  0  0  0  0  0  0  0  0  0
  1 26  2  0  0  0  0
  1  2  1  0  0  0  0
  2 27  2  0  0  0  0
  3 11  1  0  0  0  0
  3  4  1  0  0  0  0
  4 12  1  0  0  0  0
  4 13  1  1  0  0  0
  3  5  1  0  0  0  0
  4  6  1  0  0  0  0
  6 16  2  0  0  0  0
  7  5  1  0  0  0  0
  7  8  1  0  0  0  0
  6  8  1  0  0  0  0
  8  9  1  0  0  0  0
  9  2  1  0  0  0  0
  9 23  2  0  0  0  0
  7 10  1  0  0  0  0
 10  1  1  0  0  0  0
 10 32  1  1  0  0  0
 10 31  1  6  0  0  0
 11 14  1  0  0  0  0
 11 15  1  1  0  0  0
 12 17  1  0  0  0  0
 12 18  2  0  0  0  0
 14 19  1  0  0  0  0
 14 17  2  0  0  0  0
 15 20  1  0  0  0  0
 15 21  1  0  0  0  0
 17 22  1  0  0  0  0
 22 24  1  0  0  0  0
 22 25  2  0  0  0  0
 26 28  1  0  0  0  0
 27 29  1  0  0  0  0
 27 30  1  0  0  0  0
 28 29  2  0  0  0  0
  3 33  1  1  0  0  0
  7 34  1  1  0  0  0
  8 35  1  1  0  0  0
M  END

>  <ACTIVITY>
5.00
$$$$
50694

  Mrv0541 05041708502D          

 35 38  0  0  1  0            999 V2000
   11.1613   -9.5509    0.0000 C   0  0  0  0  0  0  0  0  0  0  0  0
   10.4469   -9.9634    0.0000 C   0  0  0  0  0  0  0  0  0  0  0  0
   10.4469  -10.7884    0.0000 C   0  0  0  0  0  0  0  0  0  0  0  0
   11.1613  -11.2009    0.0000 C   0  0  0  0  0  0  0  0  0  0  0  0
   11.8758  -10.7884    0.0000 C   0  0  0  0  0  0  0  0  0  0  0  0
   11.8758   -9.9634    0.0000 C   0  0  0  0  0  0  0  0  0  0  0  0
   12.5903   -9.5509    0.0000 C   0  0  0  0  0  0  0  0  0  0  0  0
   12.5903  -11.2009    0.0000 C   0  0  0  0  0  0  0  0  0  0  0  0
   13.3047  -10.7884    0.0000 C   0  0  0  0  0  0  0  0  0  0  0  0
   13.3047   -9.9634    0.0000 C   0  0  2  0  0  0  0  0  0  0  0  0
   14.0192   -9.5509    0.0000 C   0  0  0  0  0  0  0  0  0  0  0  0
   14.0192  -11.2009    0.0000 C   0  0  0  0  0  0  0  0  0  0  0  0
   14.7337  -10.7884    0.0000 C   0  0  1  0  0  0  0  0  0  0  0  0
   14.7337   -9.9634    0.0000 C   0  0  2  0  0  0  0  0  0  0  0  0
   15.4481   -9.5509    0.0000 C   0  0  1  0  0  0  0  0  0  0  0  0
   15.4481  -11.2009    0.0000 C   0  0  0  0  0  0  0  0  0  0  0  0
   16.1626  -10.7884    0.0000 C   0  0  0  0  0  0  0  0  0  0  0  0
   16.1626   -9.9634    0.0000 C   0  0  0  0  0  0  0  0  0  0  0  0
   11.1613   -8.7259    0.0000 N   0  0  0  0  0  0  0  0  0  0  0  0
   15.4481   -8.7259    0.0000 N   0  0  0  0  0  0  0  0  0  0  0  0
   14.7337   -9.1384    0.0000 H   0  0  0  0  0  0  0  0  0  0  0  0
   13.3047   -9.1384    0.0000 H   0  0  0  0  0  0  0  0  0  0  0  0
   14.7337  -11.6134    0.0000 O   0  0  0  0  0  0  0  0  0  0  0  0
   11.8758   -8.3134    0.0000 C   0  0  0  0  0  0  0  0  0  0  0  0
   10.4469   -8.3134    0.0000 C   0  0  0  0  0  0  0  0  0  0  0  0
   16.1626   -8.3134    0.0000 C   0  0  0  0  0  0  0  0  0  0  0  0
   14.7336   -8.3134    0.0000 C   0  0  0  0  0  0  0  0  0  0  0  0
   16.8771   -9.5509    0.0000 O   0  0  0  0  0  0  0  0  0  0  0  0
   11.1613  -12.0259    0.0000 O   0  0  0  0  0  0  0  0  0  0  0  0
   12.5903  -12.0259    0.0000 O   0  0  0  0  0  0  0  0  0  0  0  0
   14.0192  -12.0259    0.0000 O   0  0  0  0  0  0  0  0  0  0  0  0
   15.4481  -12.0259    0.0000 O   0  0  0  0  0  0  0  0  0  0  0  0
   16.8771  -11.2009    0.0000 C   0  0  0  0  0  0  0  0  0  0  0  0
   16.8771  -12.0259    0.0000 O   0  0  0  0  0  0  0  0  0  0  0  0
   17.5915  -10.7884    0.0000 N   0  0  0  0  0  0  0  0  0  0  0  0
  1  2  2  0  0  0  0
  2  3  1  0  0  0  0
  3  4  2  0  0  0  0
  4  5  1  0  0  0  0
  1  6  1  0  0  0  0
  7  6  1  0  0  0  0
  6  5  2  0  0  0  0
  5  8  1  0  0  0  0
  8  9  1  0  0  0  0
  7 10  1  0  0  0  0
 11 10  1  0  0  0  0
 10  9  1  0  0  0  0
  9 12  2  0  0  0  0
 12 13  1  0  0  0  0
 11 14  1  0  0  0  0
 15 14  1  0  0  0  0
 14 13  1  0  0  0  0
 13 16  1  0  0  0  0
 16 17  1  0  0  0  0
 17 18  2  0  0  0  0
 15 18  1  0  0  0  0
  1 19  1  0  0  0  0
 15 20  1  6  0  0  0
 14 21  1  6  0  0  0
 10 22  1  6  0  0  0
 13 23  1  6  0  0  0
 19 24  1  0  0  0  0
 19 25  1  0  0  0  0
 20 26  1  0  0  0  0
 20 27  1  0  0  0  0
 18 28  1  0  0  0  0
  4 29  1  0  0  0  0
  8 30  2  0  0  0  0
 12 31  1  0  0  0  0
 16 32  2  0  0  0  0
 17 33  1  0  0  0  0
 33 34  2  0  0  0  0
 33 35  1  0  0  0  0
M  END

>  <ACTIVITY>
5.00
$$$$
50845

  Mrv0541 05041708502D          

 34 37  0  0  1  0            999 V2000
   -0.7145    2.0625    0.0000 C   0  0  2  0  0  0  0  0  0  0  0  0
   -2.1434    2.0625    0.0000 C   0  0  0  0  0  0  0  0  0  0  0  0
   -0.7145    1.2375    0.0000 C   0  0  2  0  0  0  0  0  0  0  0  0
    0.7144    2.0625    0.0000 C   0  0  0  0  0  0  0  0  0  0  0  0
   -1.4290    2.4750    0.0000 C   0  0  0  0  0  0  0  0  0  0  0  0
    0.0000    2.4750    0.0000 C   0  0  0  0  0  0  0  0  0  0  0  0
    0.7144    1.2375    0.0000 C   0  0  0  0  0  0  0  0  0  0  0  0
   -2.8579    2.4750    0.0000 C   0  0  0  0  0  0  0  0  0  0  0  0
   -2.1434    1.2375    0.0000 C   0  0  2  0  0  0  0  0  0  0  0  0
    0.0000    0.8250    0.0000 C   0  0  1  0  0  0  0  0  0  0  0  0
   -3.5724    2.0625    0.0000 C   0  0  0  0  0  0  0  0  0  0  0  0
   -1.4290    0.8250    0.0000 C   0  0  2  0  0  0  0  0  0  0  0  0
   -3.5724    1.2375    0.0000 C   0  0  0  0  0  0  0  0  0  0  0  0
   -2.8579    0.8250    0.0000 C   0  0  2  0  0  0  0  0  0  0  0  0
    1.4289    2.4750    0.0000 C   0  0  0  0  0  0  0  0  0  0  0  0
    0.0000    0.0000    0.0000 N   0  0  0  0  0  0  0  0  0  0  0  0
    0.0000    3.3000    0.0000 O   0  0  0  0  0  0  0  0  0  0  0  0
   -2.8579    3.3000    0.0000 O   0  0  0  0  0  0  0  0  0  0  0  0
   -4.2868    2.4750    0.0000 C   0  0  0  0  0  0  0  0  0  0  0  0
   -0.7145    2.8875    0.0000 O   0  0  0  0  0  0  0  0  0  0  0  0
    2.1434    2.0625    0.0000 N   0  0  0  0  0  0  0  0  0  0  0  0
   -1.4290    3.3000    0.0000 O   0  0  0  0  0  0  0  0  0  0  0  0
    1.4289    0.8250    0.0000 O   0  0  0  0  0  0  0  0  0  0  0  0
   -1.4290    0.0000    0.0000 O   0  0  0  0  0  0  0  0  0  0  0  0
    1.4289    3.3000    0.0000 O   0  0  0  0  0  0  0  0  0  0  0  0
   -4.2868    0.8250    0.0000 C   0  0  0  0  0  0  0  0  0  0  0  0
   -2.8579    0.0000    0.0000 C   0  0  0  0  0  0  0  0  0  0  0  0
   -4.2868    3.3000    0.0000 O   0  0  0  0  0  0  0  0  0  0  0  0
   -5.0013    1.2375    0.0000 C   0  0  0  0  0  0  0  0  0  0  0  0
   -5.0013    2.0625    0.0000 C   0  0  0  0  0  0  0  0  0  0  0  0
    0.7144   -0.4125    0.0000 C   0  0  0  0  0  0  0  0  0  0  0  0
   -0.7145   -0.4125    0.0000 C   0  0  0  0  0  0  0  0  0  0  0  0
   -2.1434    0.4125    0.0000 H   0  0  0  0  0  0  0  0  0  0  0  0
   -0.7145    0.4125    0.0000 H   0  0  0  0  0  0  0  0  0  0  0  0
  3  1  1  0  0  0  0
  5  1  1  0  0  0  0
  6  1  1  0  0  0  0
  1 20  1  1  0  0  0
  5  2  2  0  0  0  0
  8  2  1  0  0  0  0
  9  2  1  0  0  0  0
 10  3  1  0  0  0  0
 12  3  1  0  0  0  0
  3 34  1  1  0  0  0
  6  4  1  0  0  0  0
  7  4  2  0  0  0  0
 15  4  1  0  0  0  0
 22  5  1  0  0  0  0
 17  6  2  0  0  0  0
 23  7  1  0  0  0  0
 10  7  1  0  0  0  0
 11  8  1  0  0  0  0
 18  8  2  0  0  0  0
 14  9  1  0  0  0  0
  9 33  1  1  0  0  0
 12  9  1  0  0  0  0
 10 16  1  1  0  0  0
 19 11  2  0  0  0  0
 13 11  1  0  0  0  0
 12 24  1  1  0  0  0
 14 13  1  0  0  0  0
 26 13  2  0  0  0  0
 14 27  1  1  0  0  0
 21 15  1  0  0  0  0
 25 15  2  0  0  0  0
 31 16  1  0  0  0  0
 32 16  1  0  0  0  0
 28 19  1  0  0  0  0
 30 19  1  0  0  0  0
 29 26  1  0  0  0  0
 30 29  2  0  0  0  0
M  END

>  <ACTIVITY>
5.00
$$$$
27701

  Mrv0541 05041708502D          

 35 38  0  0  1  0            999 V2000
   23.9467  -12.7255    0.0000 C   0  0  1  0  0  0  0  0  0  0  0  0
   23.9567  -11.9235    0.0000 C   0  0  2  0  0  0  0  0  0  0  0  0
   23.2121  -13.1306    0.0000 C   0  0  2  0  0  0  0  0  0  0  0  0
   24.6687  -13.1675    0.0000 C   0  0  1  0  0  0  0  0  0  0  0  0
   23.2514  -11.5057    0.0000 C   0  0  0  0  0  0  0  0  0  0  0  0
   24.7066  -11.4815    0.0000 C   0  0  0  0  0  0  0  0  0  0  0  0
   23.9567  -11.0985    0.0000 O   0  0  0  0  0  0  0  0  0  0  0  0
   22.5025  -12.7244    0.0000 C   0  0  1  0  0  0  0  0  0  0  0  0
   23.2121  -13.9555    0.0000 O   0  0  0  0  0  0  0  0  0  0  0  0
   25.4149  -12.7471    0.0000 C   0  0  0  0  0  0  0  0  0  0  0  0
   24.6687  -13.9923    0.0000 N   0  0  0  0  0  0  0  0  0  0  0  0
   22.5095  -11.8994    0.0000 C   0  0  0  0  0  0  0  0  0  0  0  0
   23.2514  -10.6809    0.0000 O   0  0  0  0  0  0  0  0  0  0  0  0
   25.4215  -11.9350    0.0000 C   0  0  0  0  0  0  0  0  0  0  0  0
   24.7066  -10.6566    0.0000 O   0  0  0  0  0  0  0  0  0  0  0  0
   21.7813  -13.1295    0.0000 C   0  0  2  0  0  0  0  0  0  0  0  0
   26.1307  -13.1596    0.0000 O   0  0  0  0  0  0  0  0  0  0  0  0
   25.3762  -14.3999    0.0000 C   0  0  0  0  0  0  0  0  0  0  0  0
   23.9486  -14.4054    0.0000 C   0  0  0  0  0  0  0  0  0  0  0  0
   21.8108  -11.4740    0.0000 C   0  0  0  0  0  0  0  0  0  0  0  0
   26.1373  -11.5225    0.0000 C   0  0  0  0  0  0  0  0  0  0  0  0
   21.0776  -12.7116    0.0000 C   0  0  0  0  0  0  0  0  0  0  0  0
   21.1455  -13.6528    0.0000 C   0  0  0  0  0  0  0  0  0  0  0  0
   21.0776  -11.8866    0.0000 C   0  0  0  0  0  0  0  0  0  0  0  0
   21.8108  -10.6491    0.0000 O   0  0  0  0  0  0  0  0  0  0  0  0
   26.8569  -11.9395    0.0000 N   0  0  0  0  0  0  0  0  0  0  0  0
   26.1373  -10.7024    0.0000 O   0  0  0  0  0  0  0  0  0  0  0  0
   20.3613  -13.1125    0.0000 C   0  0  0  0  0  0  0  0  0  0  0  0
   20.3928  -11.4740    0.0000 C   0  0  0  0  0  0  0  0  0  0  0  0
   19.6470  -12.7013    0.0000 C   0  0  0  0  0  0  0  0  0  0  0  0
   19.6470  -11.8750    0.0000 C   0  0  0  0  0  0  0  0  0  0  0  0
   20.3928  -10.6492    0.0000 O   0  0  0  0  0  0  0  0  0  0  0  0
   23.9467  -13.5500    0.0000 H   0  0  0  0  0  0  0  0  0  0  0  0
   22.5025  -13.5493    0.0000 H   0  0  0  0  0  0  0  0  0  0  0  0
   21.9917  -13.9250    0.0000 O   0  0  0  0  0  0  0  0  0  0  0  0
  1  2  1  0  0  0  0
  1  3  1  0  0  0  0
  1  4  1  0  0  0  0
  2  5  1  0  0  0  0
  2  6  1  0  0  0  0
  2  7  1  1  0  0  0
  3  8  1  0  0  0  0
  3  9  1  1  0  0  0
  4 10  1  0  0  0  0
  4 11  1  1  0  0  0
  5 12  2  0  0  0  0
  5 13  1  0  0  0  0
  6 14  1  0  0  0  0
  6 15  2  0  0  0  0
  8 16  1  0  0  0  0
 10 17  1  0  0  0  0
 11 18  1  0  0  0  0
 11 19  1  0  0  0  0
 12 20  1  0  0  0  0
 14 21  1  0  0  0  0
 16 22  1  0  0  0  0
 16 23  1  1  0  0  0
 20 24  1  0  0  0  0
 20 25  2  0  0  0  0
 21 26  1  0  0  0  0
 21 27  2  0  0  0  0
 22 28  1  0  0  0  0
 24 29  1  0  0  0  0
 28 30  2  0  0  0  0
 29 31  2  0  0  0  0
 29 32  1  0  0  0  0
  8 12  1  0  0  0  0
 10 14  2  0  0  0  0
 22 24  2  0  0  0  0
 30 31  1  0  0  0  0
  1 33  1  1  0  0  0
  8 34  1  1  0  0  0
 16 35  1  0  0  0  0
M  END

>  <ACTIVITY>
5.00
$$$$
34730

  Mrv0541 05041708502D          

 74 76  0  0  1  0            999 V2000
   18.4328   -3.8895    0.0000 C   0  0  2  0  0  0  0  0  0  0  0  0
   17.0039   -3.8895    0.0000 C   0  0  0  0  0  0  0  0  0  0  0  0
   18.4328   -4.7145    0.0000 C   0  0  2  0  0  0  0  0  0  0  0  0
   19.8617   -3.8895    0.0000 C   0  0  0  0  0  0  0  0  0  0  0  0
   17.7183   -3.4770    0.0000 C   0  0  0  0  0  0  0  0  0  0  0  0
   19.1473   -3.4770    0.0000 C   0  0  0  0  0  0  0  0  0  0  0  0
   19.8617   -4.7145    0.0000 C   0  0  0  0  0  0  0  0  0  0  0  0
   16.2894   -3.4770    0.0000 C   0  0  0  0  0  0  0  0  0  0  0  0
   17.0039   -4.7145    0.0000 C   0  0  2  0  0  0  0  0  0  0  0  0
   19.1473   -5.1270    0.0000 C   0  0  1  0  0  0  0  0  0  0  0  0
   15.5749   -3.8895    0.0000 C   0  0  0  0  0  0  0  0  0  0  0  0
   17.7183   -5.1270    0.0000 C   0  0  2  0  0  0  0  0  0  0  0  0
   15.5749   -4.7145    0.0000 C   0  0  0  0  0  0  0  0  0  0  0  0
   16.2894   -5.1270    0.0000 C   0  0  2  0  0  0  0  0  0  0  0  0
   20.5762   -3.4770    0.0000 C   0  0  0  0  0  0  0  0  0  0  0  0
   19.1473   -5.9520    0.0000 N   0  3  0  0  0  0  0  0  0  0  0  0
   19.1473   -2.6520    0.0000 O   0  0  0  0  0  0  0  0  0  0  0  0
   16.2894   -2.6520    0.0000 O   0  0  0  0  0  0  0  0  0  0  0  0
   14.8605   -3.4770    0.0000 C   0  0  0  0  0  0  0  0  0  0  0  0
   18.4328   -3.0645    0.0000 O   0  0  0  0  0  0  0  0  0  0  0  0
   21.2907   -3.8895    0.0000 N   0  0  0  0  0  0  0  0  0  0  0  0
   17.7183   -2.6520    0.0000 O   0  0  0  0  0  0  0  0  0  0  0  0
   20.5762   -5.1270    0.0000 O   0  0  0  0  0  0  0  0  0  0  0  0
   17.7183   -5.9520    0.0000 O   0  0  0  0  0  0  0  0  0  0  0  0
   20.5762   -2.6520    0.0000 O   0  0  0  0  0  0  0  0  0  0  0  0
   14.8605   -5.1270    0.0000 C   0  0  0  0  0  0  0  0  0  0  0  0
   16.2894   -5.9520    0.0000 C   0  0  0  0  0  0  0  0  0  0  0  0
   14.8605   -2.6520    0.0000 O   0  0  0  0  0  0  0  0  0  0  0  0
   14.1460   -4.7145    0.0000 C   0  0  0  0  0  0  0  0  0  0  0  0
   14.1460   -3.8895    0.0000 C   0  0  0  0  0  0  0  0  0  0  0  0
   19.8617   -6.3645    0.0000 C   0  0  0  0  0  0  0  0  0  0  0  0
   18.4328   -6.3645    0.0000 C   0  0  0  0  0  0  0  0  0  0  0  0
   17.0039   -5.5395    0.0000 H   0  0  0  0  0  0  0  0  0  0  0  0
   18.4328   -5.5395    0.0000 H   0  0  0  0  0  0  0  0  0  0  0  0
   17.9611   -7.5344    0.0000 Cl  0  5  0  0  0  0  0  0  0  0  0  0
   18.3433  -10.1615    0.0000 C   0  0  2  0  0  0  0  0  0  0  0  0
   16.9144  -10.1615    0.0000 C   0  0  0  0  0  0  0  0  0  0  0  0
   18.3433  -10.9865    0.0000 C   0  0  2  0  0  0  0  0  0  0  0  0
   19.7722  -10.1615    0.0000 C   0  0  0  0  0  0  0  0  0  0  0  0
   17.6288   -9.7490    0.0000 C   0  0  0  0  0  0  0  0  0  0  0  0
   19.0578   -9.7490    0.0000 C   0  0  0  0  0  0  0  0  0  0  0  0
   19.7722  -10.9865    0.0000 C   0  0  0  0  0  0  0  0  0  0  0  0
   16.1999   -9.7490    0.0000 C   0  0  0  0  0  0  0  0  0  0  0  0
   16.9144  -10.9865    0.0000 C   0  0  2  0  0  0  0  0  0  0  0  0
   19.0578  -11.3990    0.0000 C   0  0  1  0  0  0  0  0  0  0  0  0
   15.4854  -10.1615    0.0000 C   0  0  0  0  0  0  0  0  0  0  0  0
   17.6288  -11.3990    0.0000 C   0  0  2  0  0  0  0  0  0  0  0  0
   15.4854  -10.9865    0.0000 C   0  0  0  0  0  0  0  0  0  0  0  0
   16.1999  -11.3990    0.0000 C   0  0  2  0  0  0  0  0  0  0  0  0
   20.4867   -9.7490    0.0000 C   0  0  0  0  0  0  0  0  0  0  0  0
   19.0578  -12.2240    0.0000 N   0  3  0  0  0  0  0  0  0  0  0  0
   19.0578   -8.9240    0.0000 O   0  0  0  0  0  0  0  0  0  0  0  0
   16.1999   -8.9240    0.0000 O   0  0  0  0  0  0  0  0  0  0  0  0
   14.7710   -9.7490    0.0000 C   0  0  0  0  0  0  0  0  0  0  0  0
   18.3433   -9.3365    0.0000 O   0  0  0  0  0  0  0  0  0  0  0  0
   21.2012  -10.1615    0.0000 N   0  0  0  0  0  0  0  0  0  0  0  0
   17.6288   -8.9240    0.0000 O   0  0  0  0  0  0  0  0  0  0  0  0
   20.4867  -11.3990    0.0000 O   0  0  0  0  0  0  0  0  0  0  0  0
   17.6288  -12.2240    0.0000 O   0  0  0  0  0  0  0  0  0  0  0  0
   20.4867   -8.9240    0.0000 O   0  0  0  0  0  0  0  0  0  0  0  0
   14.7710  -11.3990    0.0000 C   0  0  0  0  0  0  0  0  0  0  0  0
   16.1999  -12.2240    0.0000 C   0  0  0  0  0  0  0  0  0  0  0  0
   14.7710   -8.9240    0.0000 O   0  0  0  0  0  0  0  0  0  0  0  0
   14.0565  -10.9865    0.0000 C   0  0  0  0  0  0  0  0  0  0  0  0
   14.0565  -10.1615    0.0000 C   0  0  0  0  0  0  0  0  0  0  0  0
   19.7722  -12.6365    0.0000 C   0  0  0  0  0  0  0  0  0  0  0  0
   18.3433  -12.6365    0.0000 C   0  0  0  0  0  0  0  0  0  0  0  0
   16.9144  -11.8115    0.0000 H   0  0  0  0  0  0  0  0  0  0  0  0
   18.3433  -11.8115    0.0000 H   0  0  0  0  0  0  0  0  0  0  0  0
   17.8717  -13.8063    0.0000 Cl  0  5  0  0  0  0  0  0  0  0  0  0
   14.3431   -7.3356    0.0000 C   0  0  0  0  0  0  0  0  0  0  0  0
   15.0587   -6.9181    0.0000 C   0  0  0  0  0  0  0  0  0  0  0  0
   15.7751   -7.3274    0.0000 O   0  0  0  0  0  0  0  0  0  0  0  0
   21.4698   -7.5144    0.0000 O   0  0  0  0  0  0  0  0  0  0  0  0
  3  1  1  0  0  0  0
  5  1  1  0  0  0  0
  6  1  1  0  0  0  0
  1 20  1  1  0  0  0
  5  2  2  0  0  0  0
  8  2  1  0  0  0  0
  9  2  1  0  0  0  0
 10  3  1  0  0  0  0
 12  3  1  0  0  0  0
  3 34  1  1  0  0  0
  6  4  1  0  0  0  0
  7  4  2  0  0  0  0
 15  4  1  0  0  0  0
 22  5  1  0  0  0  0
 17  6  2  0  0  0  0
 23  7  1  0  0  0  0
 10  7  1  0  0  0  0
 11  8  1  0  0  0  0
 18  8  2  0  0  0  0
 14  9  1  0  0  0  0
  9 33  1  1  0  0  0
 12  9  1  0  0  0  0
 10 16  1  1  0  0  0
 19 11  2  0  0  0  0
 13 11  1  0  0  0  0
 12 24  1  1  0  0  0
 14 13  1  0  0  0  0
 26 13  2  0  0  0  0
 14 27  1  1  0  0  0
 21 15  1  0  0  0  0
 25 15  2  0  0  0  0
 31 16  1  0  0  0  0
 32 16  1  0  0  0  0
 28 19  1  0  0  0  0
 30 19  1  0  0  0  0
 29 26  1  0  0  0  0
 30 29  2  0  0  0  0
 38 36  1  0  0  0  0
 40 36  1  0  0  0  0
 41 36  1  0  0  0  0
 36 55  1  1  0  0  0
 40 37  2  0  0  0  0
 43 37  1  0  0  0  0
 44 37  1  0  0  0  0
 45 38  1  0  0  0  0
 47 38  1  0  0  0  0
 38 69  1  1  0  0  0
 41 39  1  0  0  0  0
 42 39  2  0  0  0  0
 50 39  1  0  0  0  0
 57 40  1  0  0  0  0
 52 41  2  0  0  0  0
 58 42  1  0  0  0  0
 45 42  1  0  0  0  0
 46 43  1  0  0  0  0
 53 43  2  0  0  0  0
 49 44  1  0  0  0  0
 44 68  1  1  0  0  0
 47 44  1  0  0  0  0
 45 51  1  1  0  0  0
 54 46  2  0  0  0  0
 48 46  1  0  0  0  0
 47 59  1  1  0  0  0
 49 48  1  0  0  0  0
 61 48  2  0  0  0  0
 49 62  1  1  0  0  0
 56 50  1  0  0  0  0
 60 50  2  0  0  0  0
 66 51  1  0  0  0  0
 67 51  1  0  0  0  0
 63 54  1  0  0  0  0
 65 54  1  0  0  0  0
 64 61  1  0  0  0  0
 65 64  2  0  0  0  0
 71 72  1  0  0  0  0
 72 73  1  0  0  0  0
M  CHG  4  16   1  35  -1  51   1  70  -1
M  END

>  <ACTIVITY>
5.00
$$$$
60648

  Mrv0541 05041708502D          

 35 37  0  0  1  0            999 V2000
   18.4328   -3.8895    0.0000 C   0  0  2  0  0  0  0  0  0  0  0  0
   17.0039   -3.8895    0.0000 C   0  0  0  0  0  0  0  0  0  0  0  0
   18.4328   -4.7145    0.0000 C   0  0  2  0  0  0  0  0  0  0  0  0
   19.8617   -3.8895    0.0000 C   0  0  0  0  0  0  0  0  0  0  0  0
   17.7183   -3.4770    0.0000 C   0  0  0  0  0  0  0  0  0  0  0  0
   19.1473   -3.4770    0.0000 C   0  0  0  0  0  0  0  0  0  0  0  0
   19.8617   -4.7145    0.0000 C   0  0  0  0  0  0  0  0  0  0  0  0
   16.2894   -3.4770    0.0000 C   0  0  0  0  0  0  0  0  0  0  0  0
   17.0039   -4.7145    0.0000 C   0  0  2  0  0  0  0  0  0  0  0  0
   19.1473   -5.1270    0.0000 C   0  0  1  0  0  0  0  0  0  0  0  0
   15.5749   -3.8895    0.0000 C   0  0  0  0  0  0  0  0  0  0  0  0
   17.7183   -5.1270    0.0000 C   0  0  2  0  0  0  0  0  0  0  0  0
   15.5749   -4.7145    0.0000 C   0  0  0  0  0  0  0  0  0  0  0  0
   16.2894   -5.1270    0.0000 C   0  0  2  0  0  0  0  0  0  0  0  0
   20.5762   -3.4770    0.0000 C   0  0  0  0  0  0  0  0  0  0  0  0
   19.1473   -5.9520    0.0000 N   0  0  0  0  0  0  0  0  0  0  0  0
   19.1473   -2.6520    0.0000 O   0  0  0  0  0  0  0  0  0  0  0  0
   16.2894   -2.6520    0.0000 O   0  0  0  0  0  0  0  0  0  0  0  0
   14.8605   -3.4770    0.0000 C   0  0  0  0  0  0  0  0  0  0  0  0
   18.4328   -3.0645    0.0000 O   0  0  0  0  0  0  0  0  0  0  0  0
   21.2907   -3.8895    0.0000 N   0  0  0  0  0  0  0  0  0  0  0  0
   17.7183   -2.6520    0.0000 O   0  0  0  0  0  0  0  0  0  0  0  0
   20.5762   -5.1270    0.0000 O   0  0  0  0  0  0  0  0  0  0  0  0
   17.7183   -5.9520    0.0000 O   0  0  0  0  0  0  0  0  0  0  0  0
   20.5762   -2.6520    0.0000 O   0  0  0  0  0  0  0  0  0  0  0  0
   14.8605   -5.1270    0.0000 C   0  0  0  0  0  0  0  0  0  0  0  0
   16.2894   -5.9520    0.0000 C   0  0  0  0  0  0  0  0  0  0  0  0
   14.8605   -2.6520    0.0000 O   0  0  0  0  0  0  0  0  0  0  0  0
   14.1460   -4.7145    0.0000 C   0  0  0  0  0  0  0  0  0  0  0  0
   14.1460   -3.8895    0.0000 C   0  0  0  0  0  0  0  0  0  0  0  0
   19.8617   -6.3645    0.0000 C   0  0  0  0  0  0  0  0  0  0  0  0
   18.4328   -6.3645    0.0000 C   0  0  0  0  0  0  0  0  0  0  0  0
   17.0039   -5.5395    0.0000 H   0  0  0  0  0  0  0  0  0  0  0  0
   18.4328   -5.5395    0.0000 H   0  0  0  0  0  0  0  0  0  0  0  0
   17.4542   -7.3256    0.0000 O   0  0  0  0  0  0  0  0  0  0  0  0
  3  1  1  0  0  0  0
  5  1  1  0  0  0  0
  6  1  1  0  0  0  0
  1 20  1  1  0  0  0
  5  2  2  0  0  0  0
  8  2  1  0  0  0  0
  9  2  1  0  0  0  0
 10  3  1  0  0  0  0
 12  3  1  0  0  0  0
  3 34  1  1  0  0  0
  6  4  1  0  0  0  0
  7  4  2  0  0  0  0
 15  4  1  0  0  0  0
 22  5  1  0  0  0  0
 17  6  2  0  0  0  0
 23  7  1  0  0  0  0
 10  7  1  0  0  0  0
 11  8  1  0  0  0  0
 18  8  2  0  0  0  0
 14  9  1  0  0  0  0
  9 33  1  1  0  0  0
 12  9  1  0  0  0  0
 10 16  1  1  0  0  0
 19 11  2  0  0  0  0
 13 11  1  0  0  0  0
 12 24  1  1  0  0  0
 14 13  1  0  0  0  0
 26 13  2  0  0  0  0
 14 27  1  1  0  0  0
 21 15  1  0  0  0  0
 25 15  2  0  0  0  0
 31 16  1  0  0  0  0
 32 16  1  0  0  0  0
 28 19  1  0  0  0  0
 30 19  1  0  0  0  0
 29 26  1  0  0  0  0
 30 29  2  0  0  0  0
M  END

>  <ACTIVITY>
5.00
$$$$
4392

  Mrv0541 05041708502D          

 34 37  0  0  1  0            999 V2000
    9.1461   -3.4366    0.0000 C   0  0  0  0  0  0  0  0  0  0  0  0
    7.7172   -5.9117    0.0000 N   0  0  0  0  0  0  0  0  0  0  0  0
    7.0027   -4.6741    0.0000 C   0  0  2  0  0  0  0  0  0  0  0  0
    7.0027   -3.8491    0.0000 C   0  0  2  0  0  0  0  0  0  0  0  0
    7.7172   -5.0866    0.0000 C   0  0  1  0  0  0  0  0  0  0  0  0
    6.2882   -5.0866    0.0000 C   0  0  0  0  0  0  0  0  0  0  0  0
    6.2882   -3.4366    0.0000 C   0  0  0  0  0  0  0  0  0  0  0  0
    7.7172   -3.4366    0.0000 C   0  0  0  0  0  0  0  0  0  0  0  0
    7.0027   -3.0241    0.0000 O   0  0  0  0  0  0  0  0  0  0  0  0
    8.4316   -4.6741    0.0000 C   0  0  0  0  0  0  0  0  0  0  0  0
    5.5737   -4.6741    0.0000 C   0  0  1  0  0  0  0  0  0  0  0  0
    5.5737   -3.8491    0.0000 C   0  0  0  0  0  0  0  0  0  0  0  0
    6.2882   -2.6116    0.0000 O   0  0  0  0  0  0  0  0  0  0  0  0
    8.4316   -3.8491    0.0000 C   0  0  0  0  0  0  0  0  0  0  0  0
    7.7172   -2.6116    0.0000 O   0  0  0  0  0  0  0  0  0  0  0  0
    9.1461   -5.0866    0.0000 O   0  0  0  0  0  0  0  0  0  0  0  0
    4.8592   -5.0866    0.0000 C   0  0  1  0  0  0  0  0  0  0  0  0
    4.8592   -3.4366    0.0000 C   0  0  0  0  0  0  0  0  0  0  0  0
    4.1447   -4.6741    0.0000 C   0  0  0  0  0  0  0  0  0  0  0  0
    4.8592   -5.9117    0.0000 O   0  0  0  0  0  0  0  0  0  0  0  0
    4.1447   -3.8491    0.0000 C   0  0  0  0  0  0  0  0  0  0  0  0
    4.8592   -2.6116    0.0000 O   0  0  0  0  0  0  0  0  0  0  0  0
    3.4303   -5.0866    0.0000 C   0  0  0  0  0  0  0  0  0  0  0  0
    3.4303   -3.4366    0.0000 C   0  0  0  0  0  0  0  0  0  0  0  0
    2.7158   -4.6741    0.0000 C   0  0  0  0  0  0  0  0  0  0  0  0
    3.4303   -5.9117    0.0000 Cl  0  0  0  0  0  0  0  0  0  0  0  0
    2.7158   -3.8491    0.0000 C   0  0  0  0  0  0  0  0  0  0  0  0
    3.4303   -2.6116    0.0000 O   0  0  0  0  0  0  0  0  0  0  0  0
    7.0027   -5.4992    0.0000 H   0  0  0  0  0  0  0  0  0  0  0  0
    5.5737   -5.4992    0.0000 H   0  0  0  0  0  0  0  0  0  0  0  0
    8.4316   -6.3242    0.0000 C   0  0  0  0  0  0  0  0  0  0  0  0
    7.0027   -6.3242    0.0000 C   0  0  0  0  0  0  0  0  0  0  0  0
    9.1461   -2.6116    0.0000 O   0  0  0  0  0  0  0  0  0  0  0  0
    9.8606   -3.8491    0.0000 N   0  0  0  0  0  0  0  0  0  0  0  0
 12 18  1  0  0  0  0
 17 19  1  0  0  0  0
 17 20  1  6  0  0  0
 18 21  1  0  0  0  0
 18 22  2  0  0  0  0
 19 23  1  0  0  0  0
 21 24  1  0  0  0  0
 23 25  2  0  0  0  0
 23 26  1  0  0  0  0
 24 27  2  0  0  0  0
 24 28  1  0  0  0  0
 10 14  2  0  0  0  0
 11 12  1  0  0  0  0
 19 21  2  0  0  0  0
 25 27  1  0  0  0  0
  3 29  1  1  0  0  0
 11 30  1  1  0  0  0
  3  4  1  0  0  0  0
  3  5  1  0  0  0  0
  3  6  1  0  0  0  0
  4  7  1  0  0  0  0
  4  8  1  0  0  0  0
  4  9  1  1  0  0  0
  5 10  1  0  0  0  0
  6 11  1  0  0  0  0
  7 12  2  0  0  0  0
  7 13  1  0  0  0  0
  8 14  1  0  0  0  0
  8 15  2  0  0  0  0
 10 16  1  0  0  0  0
 11 17  1  0  0  0  0
  5  2  1  1  0  0  0
 14  1  1  0  0  0  0
  2 31  1  0  0  0  0
  2 32  1  0  0  0  0
  1 33  2  0  0  0  0
  1 34  1  0  0  0  0
M  END

>  <ACTIVITY>
5.00
$$$$
149836

  Mrv0541 05041708502D          

 44 47  0  0  1  0            999 V2000
   10.9363   -8.4028    0.0000 C   0  0  0  0  0  0  0  0  0  0  0  0
   11.6391   -8.8305    0.0000 C   0  0  0  0  0  0  0  0  0  0  0  0
   11.6391   -9.6555    0.0000 C   0  0  0  0  0  0  0  0  0  0  0  0
   10.9363  -10.0528    0.0000 C   0  0  2  0  0  0  0  0  0  0  0  0
   10.2030   -9.6555    0.0000 C   0  0  2  0  0  0  0  0  0  0  0  0
    9.5002  -10.0528    0.0000 C   0  0  0  0  0  0  0  0  0  0  0  0
    8.7669   -9.6555    0.0000 C   0  0  2  0  0  0  0  0  0  0  0  0
    8.0641  -10.0528    0.0000 C   0  0  0  0  0  0  0  0  0  0  0  0
    7.3308   -9.6555    0.0000 C   0  0  0  0  0  0  0  0  0  0  0  0
    6.6280  -10.0528    0.0000 C   0  0  0  0  0  0  0  0  0  0  0  0
    5.8947   -9.6555    0.0000 C   0  0  0  0  0  0  0  0  0  0  0  0
    5.8947   -8.8305    0.0000 C   0  0  0  0  0  0  0  0  0  0  0  0
    6.6280   -8.4028    0.0000 C   0  0  0  0  0  0  0  0  0  0  0  0
    7.3308   -8.8305    0.0000 C   0  0  0  0  0  0  0  0  0  0  0  0
    8.0641   -8.4028    0.0000 C   0  0  0  0  0  0  0  0  0  0  0  0
    8.7669   -8.8305    0.0000 C   0  0  0  0  0  0  0  0  0  0  0  0
    9.5002   -8.4028    0.0000 C   0  0  0  0  0  0  0  0  0  0  0  0
   10.2030   -8.8305    0.0000 C   0  0  2  0  0  0  0  0  0  0  0  0
   12.3724   -8.4028    0.0000 C   0  0  0  0  0  0  0  0  0  0  0  0
   12.3724   -7.5778    0.0000 O   0  0  0  0  0  0  0  0  0  0  0  0
   13.0752   -8.8305    0.0000 N   0  0  0  0  0  0  0  0  0  0  0  0
    8.0641   -7.5778    0.0000 O   0  0  0  0  0  0  0  0  0  0  0  0
   10.9363   -7.5778    0.0000 O   0  0  0  0  0  0  0  0  0  0  0  0
   10.2030   -8.0055    0.0000 O   0  0  0  0  0  0  0  0  0  0  0  0
    9.5002   -7.5778    0.0000 O   0  0  0  0  0  0  0  0  0  0  0  0
    6.6280   -7.5778    0.0000 O   0  0  0  0  0  0  0  0  0  0  0  0
   12.3724  -10.0528    0.0000 O   0  0  0  0  0  0  0  0  0  0  0  0
    5.1919   -8.4028    0.0000 N   0  0  0  0  0  0  0  0  0  0  0  0
    6.6280  -10.9084    0.0000 N   0  0  0  0  0  0  0  0  0  0  0  0
    5.8947  -11.3055    0.0000 C   0  0  0  0  0  0  0  0  0  0  0  0
    7.3308  -11.3055    0.0000 C   0  0  0  0  0  0  0  0  0  0  0  0
   10.9363  -10.9084    0.0000 N   0  0  0  0  0  0  0  0  0  0  0  0
   11.6391  -11.3055    0.0000 C   0  0  0  0  0  0  0  0  0  0  0  0
   10.2030  -11.3055    0.0000 C   0  0  0  0  0  0  0  0  0  0  0  0
   10.2030  -10.4805    0.0000 H   0  0  0  0  0  0  0  0  0  0  0  0
    8.7669  -10.4805    0.0000 H   0  0  0  0  0  0  0  0  0  0  0  0
    4.4729   -8.8166    0.0000 C   0  0  0  0  0  0  0  0  0  0  0  0
    3.7590   -8.4031    0.0000 C   0  0  0  0  0  0  0  0  0  0  0  0
    4.4717   -9.6416    0.0000 O   0  0  0  0  0  0  0  0  0  0  0  0
    3.0416   -8.8166    0.0000 N   0  0  0  0  0  0  0  0  0  0  0  0
    3.0416   -9.6416    0.0000 C   0  0  0  0  0  0  0  0  0  0  0  0
    2.3271  -10.0541    0.0000 C   0  0  0  0  0  0  0  0  0  0  0  0
    3.7560  -10.0541    0.0000 C   0  0  0  0  0  0  0  0  0  0  0  0
    3.0416  -10.4666    0.0000 C   0  0  0  0  0  0  0  0  0  0  0  0
  2  1  1  0  0  0  0
 18  1  1  0  0  0  0
 23  1  2  0  0  0  0
  3  2  2  0  0  0  0
 19  2  1  0  0  0  0
  4  3  1  0  0  0  0
 27  3  1  0  0  0  0
  5  4  1  0  0  0  0
  4 32  1  1  0  0  0
  6  5  1  0  0  0  0
 18  5  1  0  0  0  0
  5 35  1  1  0  0  0
  7  6  1  0  0  0  0
  8  7  1  0  0  0  0
 16  7  1  0  0  0  0
  7 36  1  1  0  0  0
  9  8  1  0  0  0  0
 10  9  1  0  0  0  0
 14  9  2  0  0  0  0
 11 10  2  0  0  0  0
 29 10  1  0  0  0  0
 12 11  1  0  0  0  0
 13 12  2  0  0  0  0
 28 12  1  0  0  0  0
 14 13  1  0  0  0  0
 26 13  1  0  0  0  0
 15 14  1  0  0  0  0
 16 15  1  0  0  0  0
 22 15  2  0  0  0  0
 17 16  2  0  0  0  0
 18 17  1  0  0  0  0
 25 17  1  0  0  0  0
 18 24  1  1  0  0  0
 20 19  2  0  0  0  0
 21 19  1  0  0  0  0
 30 29  1  0  0  0  0
 31 29  1  0  0  0  0
 33 32  1  0  0  0  0
 34 32  1  0  0  0  0
 28 37  1  0  0  0  0
 37 38  1  0  0  0  0
 37 39  2  0  0  0  0
 38 40  1  0  0  0  0
 40 41  1  0  0  0  0
 41 42  1  0  0  0  0
 41 43  1  0  0  0  0
 41 44  1  0  0  0  0
M  END

>  <ACTIVITY>
5.00
$$$$
59589

  Mrv0541 05041708502D          

 37 40  0  0  1  0            999 V2000
    7.2499   -5.5680    0.0000 C   0  0  2  0  0  0  0  0  0  0  0  0
    5.8304   -5.5680    0.0000 C   0  0  0  0  0  0  0  0  0  0  0  0
    8.6957   -5.5680    0.0000 C   0  0  0  0  0  0  0  0  0  0  0  0
    6.5402   -5.1474    0.0000 C   0  0  0  0  0  0  0  0  0  0  0  0
    7.9596   -5.1474    0.0000 C   0  0  0  0  0  0  0  0  0  0  0  0
    5.0944   -5.1474    0.0000 C   0  0  0  0  0  0  0  0  0  0  0  0
    7.2499   -6.3829    0.0000 C   0  0  2  0  0  0  0  0  0  0  0  0
    4.3846   -6.3829    0.0000 C   0  0  0  0  0  0  0  0  0  0  0  0
    4.3846   -5.5680    0.0000 C   0  0  0  0  0  0  0  0  0  0  0  0
    8.6957   -6.3829    0.0000 C   0  0  0  0  0  0  0  0  0  0  0  0
    5.0944   -6.8035    0.0000 C   0  0  1  0  0  0  0  0  0  0  0  0
    5.8304   -6.3829    0.0000 C   0  0  1  0  0  0  0  0  0  0  0  0
    7.9596   -6.8035    0.0000 C   0  0  1  0  0  0  0  0  0  0  0  0
    6.5402   -6.8035    0.0000 C   0  0  0  0  0  0  0  0  0  0  0  0
    9.4054   -5.1474    0.0000 C   0  0  0  0  0  0  0  0  0  0  0  0
    3.6749   -6.8035    0.0000 C   0  0  0  0  0  0  0  0  0  0  0  0
    3.6749   -5.1474    0.0000 C   0  0  0  0  0  0  0  0  0  0  0  0
    7.9596   -4.3326    0.0000 O   0  0  0  0  0  0  0  0  0  0  0  0
    5.0944   -4.3326    0.0000 O   0  0  0  0  0  0  0  0  0  0  0  0
    7.9596   -7.6184    0.0000 N   0  0  0  0  0  0  0  0  0  0  0  0
   10.1152   -5.5417    0.0000 N   0  0  0  0  0  0  0  0  0  0  0  0
    7.2499   -4.8320    0.0000 O   0  0  0  0  0  0  0  0  0  0  0  0
    9.4054   -4.3063    0.0000 O   0  0  0  0  0  0  0  0  0  0  0  0
    6.5402   -4.3326    0.0000 O   0  0  0  0  0  0  0  0  0  0  0  0
    9.4054   -6.8035    0.0000 O   0  0  0  0  0  0  0  0  0  0  0  0
    2.9651   -6.3829    0.0000 C   0  0  0  0  0  0  0  0  0  0  0  0
    2.9651   -5.5680    0.0000 C   0  0  0  0  0  0  0  0  0  0  0  0
   10.1152   -6.3829    0.0000 C   0  0  0  0  0  0  0  0  0  0  0  0
    3.6749   -7.6184    0.0000 Cl  0  0  0  0  0  0  0  0  0  0  0  0
    3.6749   -4.3326    0.0000 O   0  0  0  0  0  0  0  0  0  0  0  0
   10.8512   -6.8035    0.0000 O   0  0  0  0  0  0  0  0  0  0  0  0
    8.6957   -8.0390    0.0000 C   0  0  0  0  0  0  0  0  0  0  0  0
    7.2499   -8.0390    0.0000 C   0  0  0  0  0  0  0  0  0  0  0  0
    7.2499   -7.1978    0.0000 H   0  0  0  0  0  0  0  0  0  0  0  0
    4.6916   -7.5145    0.0000 C   0  0  0  0  0  0  0  0  0  0  0  0
    5.5066   -7.5145    0.0000 O   0  0  0  0  0  0  0  0  0  0  0  0
    5.8304   -7.2079    0.0000 H   0  0  0  0  0  0  0  0  0  0  0  0
  4  1  1  0  0  0  0
  5  1  1  0  0  0  0
  7  1  1  0  0  0  0
  1 22  1  1  0  0  0
  4  2  2  0  0  0  0
  6  2  1  0  0  0  0
 12  2  1  0  0  0  0
  5  3  1  0  0  0  0
 15  3  1  0  0  0  0
 10  3  2  0  0  0  0
 24  4  1  0  0  0  0
 18  5  2  0  0  0  0
  9  6  1  0  0  0  0
 19  6  2  0  0  0  0
 13  7  1  0  0  0  0
 14  7  1  0  0  0  0
  7 34  1  1  0  0  0
 11  8  1  0  0  0  0
 16  8  1  0  0  0  0
  9  8  2  0  0  0  0
 17  9  1  0  0  0  0
 13 10  1  0  0  0  0
 25 10  1  0  0  0  0
 12 11  1  0  0  0  0
 14 12  1  0  0  0  0
 13 20  1  1  0  0  0
 21 15  1  0  0  0  0
 23 15  2  0  0  0  0
 26 16  2  0  0  0  0
 29 16  1  0  0  0  0
 27 17  2  0  0  0  0
 30 17  1  0  0  0  0
 32 20  1  0  0  0  0
 33 20  1  0  0  0  0
 28 21  1  0  0  0  0
 27 26  1  0  0  0  0
 31 28  1  0  0  0  0
 11 35  1  1  0  0  0
 11 36  1  0  0  0  0
 12 37  1  1  0  0  0
M  END

>  <ACTIVITY>
5.00
$$$$
59725

  Mrv0541 05041708502D          

 35 37  0  0  1  0            999 V2000
    9.1461   -3.4366    0.0000 C   0  0  0  0  0  0  0  0  0  0  0  0
    7.7172   -5.9117    0.0000 N   0  0  0  0  0  0  0  0  0  0  0  0
    7.0027   -4.6741    0.0000 C   0  0  2  0  0  0  0  0  0  0  0  0
    7.0027   -3.8491    0.0000 C   0  0  2  0  0  0  0  0  0  0  0  0
    7.7172   -5.0866    0.0000 C   0  0  1  0  0  0  0  0  0  0  0  0
    6.2882   -5.0866    0.0000 C   0  0  0  0  0  0  0  0  0  0  0  0
    6.2882   -3.4366    0.0000 C   0  0  0  0  0  0  0  0  0  0  0  0
    7.7172   -3.4366    0.0000 C   0  0  0  0  0  0  0  0  0  0  0  0
    7.0027   -3.0241    0.0000 O   0  0  0  0  0  0  0  0  0  0  0  0
    8.4316   -4.6741    0.0000 C   0  0  0  0  0  0  0  0  0  0  0  0
    5.5737   -4.6741    0.0000 C   0  0  1  0  0  0  0  0  0  0  0  0
    5.5737   -3.8491    0.0000 C   0  0  0  0  0  0  0  0  0  0  0  0
    6.2882   -2.6116    0.0000 O   0  0  0  0  0  0  0  0  0  0  0  0
    8.4316   -3.8491    0.0000 C   0  0  0  0  0  0  0  0  0  0  0  0
    7.7172   -2.6116    0.0000 O   0  0  0  0  0  0  0  0  0  0  0  0
    9.1461   -5.0866    0.0000 O   0  0  0  0  0  0  0  0  0  0  0  0
    4.8592   -5.0866    0.0000 C   0  0  1  0  0  0  0  0  0  0  0  0
    4.8592   -3.4366    0.0000 C   0  0  0  0  0  0  0  0  0  0  0  0
    4.1447   -4.6741    0.0000 C   0  0  0  0  0  0  0  0  0  0  0  0
    4.8592   -5.9117    0.0000 O   0  0  0  0  0  0  0  0  0  0  0  0
    4.1447   -3.8491    0.0000 C   0  0  0  0  0  0  0  0  0  0  0  0
    4.8592   -2.6116    0.0000 O   0  0  0  0  0  0  0  0  0  0  0  0
    3.4303   -5.0866    0.0000 C   0  0  0  0  0  0  0  0  0  0  0  0
    3.4303   -3.4366    0.0000 C   0  0  0  0  0  0  0  0  0  0  0  0
    2.7158   -4.6741    0.0000 C   0  0  0  0  0  0  0  0  0  0  0  0
    3.4303   -5.9117    0.0000 Cl  0  0  0  0  0  0  0  0  0  0  0  0
    2.7158   -3.8491    0.0000 C   0  0  0  0  0  0  0  0  0  0  0  0
    3.4303   -2.6116    0.0000 O   0  0  0  0  0  0  0  0  0  0  0  0
    7.0027   -5.4992    0.0000 H   0  0  0  0  0  0  0  0  0  0  0  0
    5.5737   -5.4992    0.0000 H   0  0  0  0  0  0  0  0  0  0  0  0
    8.4316   -6.3242    0.0000 C   0  0  0  0  0  0  0  0  0  0  0  0
    7.0027   -6.3242    0.0000 C   0  0  0  0  0  0  0  0  0  0  0  0
    9.1461   -2.6116    0.0000 O   0  0  0  0  0  0  0  0  0  0  0  0
    9.8606   -3.8491    0.0000 N   0  0  0  0  0  0  0  0  0  0  0  0
    5.8660   -7.2334    0.0000 Cl  0  0  0  0  0  0  0  0  0  0  0  0
 12 18  1  0  0  0  0
 17 19  1  0  0  0  0
 17 20  1  6  0  0  0
 18 21  1  0  0  0  0
 18 22  2  0  0  0  0
 19 23  1  0  0  0  0
 21 24  1  0  0  0  0
 23 25  2  0  0  0  0
 23 26  1  0  0  0  0
 24 27  2  0  0  0  0
 24 28  1  0  0  0  0
 10 14  2  0  0  0  0
 11 12  1  0  0  0  0
 19 21  2  0  0  0  0
 25 27  1  0  0  0  0
  3 29  1  1  0  0  0
 11 30  1  1  0  0  0
  3  4  1  0  0  0  0
  3  5  1  0  0  0  0
  3  6  1  0  0  0  0
  4  7  1  0  0  0  0
  4  8  1  0  0  0  0
  4  9  1  1  0  0  0
  5 10  1  0  0  0  0
  6 11  1  0  0  0  0
  7 12  2  0  0  0  0
  7 13  1  0  0  0  0
  8 14  1  0  0  0  0
  8 15  2  0  0  0  0
 10 16  1  0  0  0  0
 11 17  1  0  0  0  0
  5  2  1  1  0  0  0
 14  1  1  0  0  0  0
  2 31  1  0  0  0  0
  2 32  1  0  0  0  0
  1 33  2  0  0  0  0
  1 34  1  0  0  0  0
M  END

>  <ACTIVITY>
5.00
$$$$
161680

  Mrv0541 05041708502D          

 28 29  0  0  0  0            999 V2000
   -0.7366    1.7384    0.0000 C   0  0  1  0  0  0  0  0  0  0  0  0
    0.0884    1.7384    0.0000 C   0  0  1  0  0  0  0  0  0  0  0  0
    0.0884    0.9134    0.0000 N   0  0  0  0  0  0  0  0  0  0  0  0
   -0.7366    0.9134    0.0000 C   0  0  0  0  0  0  0  0  0  0  0  0
    0.6718    0.3300    0.0000 S   0  0  0  0  0  0  0  0  0  0  0  0
    1.2551   -0.2533    0.0000 O   0  5  0  0  0  0  0  0  0  0  0  0
    1.2684    0.9586    0.0000 O   0  0  0  0  0  0  0  0  0  0  0  0
    0.0555   -0.2985    0.0000 O   0  0  0  0  0  0  0  0  0  0  0  0
   -1.3200    0.3300    0.0000 O   0  0  0  0  0  0  0  0  0  0  0  0
    0.6718    2.3218    0.0000 C   0  0  0  0  0  0  0  0  0  0  0  0
   -1.4511    2.1509    0.0000 N   0  0  0  0  0  0  0  0  0  0  0  0
   -2.1655    1.7384    0.0000 C   0  0  0  0  0  0  0  0  0  0  0  0
   -2.1655    0.9134    0.0000 O   0  0  0  0  0  0  0  0  0  0  0  0
   -2.8800    2.1509    0.0000 C   0  0  0  0  0  0  0  0  0  0  0  0
   -2.8800    2.9759    0.0000 N   0  0  0  0  0  0  0  0  0  0  0  0
   -4.3791    0.6585    0.0000 S   0  0  0  0  0  0  0  0  0  0  0  0
   -3.5945    0.9134    0.0000 C   0  0  0  0  0  0  0  0  0  0  0  0
   -3.5945    1.7384    0.0000 C   0  0  0  0  0  0  0  0  0  0  0  0
   -4.3791    1.9933    0.0000 N   0  0  0  0  0  0  0  0  0  0  0  0
   -4.8640    1.3259    0.0000 C   0  0  0  0  0  0  0  0  0  0  0  0
   -2.1655    3.3884    0.0000 O   0  0  0  0  0  0  0  0  0  0  0  0
   -2.1655    4.2134    0.0000 C   0  0  0  0  0  0  0  0  0  0  0  0
   -1.4511    4.6259    0.0000 C   0  0  0  0  0  0  0  0  0  0  0  0
   -1.4511    5.4509    0.0000 O   0  0  0  0  0  0  0  0  0  0  0  0
   -0.7366    4.2134    0.0000 O   0  0  0  0  0  0  0  0  0  0  0  0
   -2.5780    4.9279    0.0000 C   0  0  0  0  0  0  0  0  0  0  0  0
   -2.9624    3.9999    0.0000 C   0  0  0  0  0  0  0  0  0  0  0  0
   -5.6890    1.3259    0.0000 N   0  3  0  0  0  0  0  0  0  0  0  0
  1  2  1  0  0  0  0
  2  3  1  0  0  0  0
  1  4  1  0  0  0  0
  4  3  1  0  0  0  0
  3  5  1  0  0  0  0
  5  6  1  0  0  0  0
  5  7  2  0  0  0  0
  5  8  2  0  0  0  0
  4  9  2  0  0  0  0
  2 10  1  6  0  0  0
  1 11  1  1  0  0  0
 11 12  1  0  0  0  0
 12 13  2  0  0  0  0
 12 14  1  0  0  0  0
 14 18  1  0  0  0  0
 14 15  2  0  0  0  0
 16 17  1  0  0  0  0
 16 20  1  0  0  0  0
 17 18  2  0  0  0  0
 18 19  1  0  0  0  0
 19 20  2  0  0  0  0
 15 21  1  0  0  0  0
 21 22  1  0  0  0  0
 22 23  1  0  0  0  0
 23 24  2  0  0  0  0
 23 25  1  0  0  0  0
 22 26  1  0  0  0  0
 22 27  1  0  0  0  0
 20 28  1  0  0  0  0
M  CHG  2   6  -1  28   1
M  END

>  <ACTIVITY>
5.00
$$$$
62665

  Mrv0541 05041708502D          

 29 29  0  0  1  0            999 V2000
   16.3204   -1.4311    0.0000 C   0  0  1  0  0  0  0  0  0  0  0  0
   16.3204   -2.2561    0.0000 C   0  0  0  0  0  0  0  0  0  0  0  0
   15.6059   -1.0186    0.0000 N   0  0  0  0  0  0  0  0  0  0  0  0
   14.8915   -1.4311    0.0000 C   0  0  0  0  0  0  0  0  0  0  0  0
   14.8915   -2.2561    0.0000 O   0  0  0  0  0  0  0  0  0  0  0  0
   14.1770   -1.0186    0.0000 C   0  0  0  0  0  0  0  0  0  0  0  0
   14.1770   -0.1936    0.0000 N   0  0  0  0  0  0  0  0  0  0  0  0
   12.6779   -2.5110    0.0000 S   0  0  0  0  0  0  0  0  0  0  0  0
   13.4625   -2.2561    0.0000 C   0  0  0  0  0  0  0  0  0  0  0  0
   13.4625   -1.4311    0.0000 C   0  0  0  0  0  0  0  0  0  0  0  0
   12.6779   -1.1762    0.0000 N   0  0  0  0  0  0  0  0  0  0  0  0
   12.1930   -1.8436    0.0000 C   0  0  0  0  0  0  0  0  0  0  0  0
   14.8915    0.2189    0.0000 O   0  0  0  0  0  0  0  0  0  0  0  0
   14.8915    1.0439    0.0000 C   0  0  0  0  0  0  0  0  0  0  0  0
   15.6059    1.4564    0.0000 C   0  0  0  0  0  0  0  0  0  0  0  0
   15.6059    2.2814    0.0000 O   0  0  0  0  0  0  0  0  0  0  0  0
   16.3204    1.0439    0.0000 O   0  0  0  0  0  0  0  0  0  0  0  0
   14.4790    1.7583    0.0000 C   0  0  0  0  0  0  0  0  0  0  0  0
   14.0946    0.8304    0.0000 C   0  0  0  0  0  0  0  0  0  0  0  0
   11.3680   -1.8436    0.0000 N   0  0  0  0  0  0  0  0  0  0  0  0
   17.0349   -2.6686    0.0000 O   0  0  0  0  0  0  0  0  0  0  0  0
   15.6059   -2.6686    0.0000 O   0  0  0  0  0  0  0  0  0  0  0  0
   17.0349   -1.0186    0.0000 C   0  0  2  0  0  0  0  0  0  0  0  0
   17.0349   -0.1936    0.0000 C   0  0  0  0  0  0  0  0  0  0  0  0
   18.4638   -1.0186    0.0000 S   0  0  0  0  0  0  0  0  0  0  0  0
   19.1783   -1.4311    0.0000 O   0  0  0  0  0  0  0  0  0  0  0  0
   18.0514   -0.3041    0.0000 O   0  0  0  0  0  0  0  0  0  0  0  0
   18.8763   -0.3041    0.0000 O   0  0  0  0  0  0  0  0  0  0  0  0
   17.7494   -1.4311    0.0000 N   0  0  0  0  0  0  0  0  0  0  0  0
  1  2  1  0  0  0  0
  1  3  1  1  0  0  0
  3  4  1  0  0  0  0
  4  5  2  0  0  0  0
  4  6  1  0  0  0  0
  6 10  1  0  0  0  0
  6  7  2  0  0  0  0
  8  9  1  0  0  0  0
  8 12  1  0  0  0  0
  9 10  2  0  0  0  0
 10 11  1  0  0  0  0
 11 12  2  0  0  0  0
  7 13  1  0  0  0  0
 13 14  1  0  0  0  0
 14 15  1  0  0  0  0
 15 16  2  0  0  0  0
 15 17  1  0  0  0  0
 14 18  1  0  0  0  0
 14 19  1  0  0  0  0
 12 20  1  0  0  0  0
  2 21  1  0  0  0  0
  2 22  2  0  0  0  0
  1 23  1  0  0  0  0
 23 24  1  6  0  0  0
 25 26  1  0  0  0  0
 25 27  2  0  0  0  0
 28 25  2  0  0  0  0
 23 29  1  0  0  0  0
 29 25  1  0  0  0  0
M  END

>  <ACTIVITY>
5.00
$$$$
60429

  Mrv0541 05041708502D          

 29 29  0  0  1  0            999 V2000
   18.0935  -10.8861    0.0000 C   0  0  1  0  0  0  0  0  0  0  0  0
   17.3791  -10.4736    0.0000 N   0  0  0  0  0  0  0  0  0  0  0  0
   16.6647  -10.8861    0.0000 C   0  0  0  0  0  0  0  0  0  0  0  0
   16.6647  -11.7111    0.0000 O   0  0  0  0  0  0  0  0  0  0  0  0
   15.9501  -10.4736    0.0000 C   0  0  0  0  0  0  0  0  0  0  0  0
   15.9501   -9.6486    0.0000 N   0  0  0  0  0  0  0  0  0  0  0  0
   14.4511  -11.9659    0.0000 S   0  0  0  0  0  0  0  0  0  0  0  0
   15.2356  -11.7111    0.0000 C   0  0  0  0  0  0  0  0  0  0  0  0
   15.2356  -10.8861    0.0000 C   0  0  0  0  0  0  0  0  0  0  0  0
   14.4511  -10.6312    0.0000 N   0  0  0  0  0  0  0  0  0  0  0  0
   13.9661  -11.2986    0.0000 C   0  0  0  0  0  0  0  0  0  0  0  0
   16.6647   -9.2361    0.0000 O   0  0  0  0  0  0  0  0  0  0  0  0
   16.6647   -8.4111    0.0000 C   0  0  0  0  0  0  0  0  0  0  0  0
   17.3791   -7.9986    0.0000 C   0  0  0  0  0  0  0  0  0  0  0  0
   17.3791   -7.1736    0.0000 O   0  0  0  0  0  0  0  0  0  0  0  0
   18.0935   -8.4111    0.0000 O   0  0  0  0  0  0  0  0  0  0  0  0
   16.2522   -7.6965    0.0000 C   0  0  0  0  0  0  0  0  0  0  0  0
   15.8678   -8.6246    0.0000 C   0  0  0  0  0  0  0  0  0  0  0  0
   13.1411  -11.2986    0.0000 N   0  0  0  0  0  0  0  0  0  0  0  0
   18.8080  -10.4736    0.0000 C   0  0  2  0  0  0  0  0  0  0  0  0
   18.0935  -11.7111    0.0000 C   0  0  0  0  0  0  0  0  0  0  0  0
   17.3791  -12.1236    0.0000 O   0  0  0  0  0  0  0  0  0  0  0  0
   20.2369  -10.4736    0.0000 S   0  0  0  0  0  0  0  0  0  0  0  0
   18.8080   -9.6486    0.0000 C   0  0  0  0  0  0  0  0  0  0  0  0
   20.9514  -10.9068    0.0000 O   0  0  0  0  0  0  0  0  0  0  0  0
   19.8244   -9.7799    0.0000 O   0  0  0  0  0  0  0  0  0  0  0  0
   20.6494   -9.7799    0.0000 O   0  0  0  0  0  0  0  0  0  0  0  0
   19.5225  -10.8861    0.0000 N   0  0  0  0  0  0  0  0  0  0  0  0
   18.8080  -12.1236    0.0000 *   0  0  0  0  0  0  0  0  0  0  0  0
  1  2  1  1  0  0  0
  2  3  1  0  0  0  0
  3  4  2  0  0  0  0
  3  5  1  0  0  0  0
  5  9  1  0  0  0  0
  5  6  2  0  0  0  0
  7  8  1  0  0  0  0
  7 11  1  0  0  0  0
  8  9  2  0  0  0  0
  9 10  1  0  0  0  0
 10 11  2  0  0  0  0
  6 12  1  0  0  0  0
 12 13  1  0  0  0  0
 13 14  1  0  0  0  0
 14 15  2  0  0  0  0
 14 16  1  0  0  0  0
 13 17  1  0  0  0  0
 13 18  1  0  0  0  0
 11 19  1  0  0  0  0
  1 20  1  0  0  0  0
  1 21  1  0  0  0  0
 21 22  2  0  0  0  0
 20 24  1  6  0  0  0
 23 25  1  0  0  0  0
 23 26  2  0  0  0  0
 23 27  2  0  0  0  0
 20 28  1  0  0  0  0
 28 23  1  0  0  0  0
 21 29  1  0  0  0  0
M  END

>  <ACTIVITY>
5.00
$$$$
29007

  Mrv0541 05041708502D          

 37 40  0  0  1  0            999 V2000
   14.6027  -10.7254    0.0000 C   0  0  2  0  0  0  0  0  0  0  0  0
   14.6027  -11.5092    0.0000 N   0  0  0  0  0  0  0  0  0  0  0  0
   15.3451  -11.9216    0.0000 C   0  0  0  0  0  0  0  0  0  0  0  0
   16.0463  -11.5092    0.0000 C   0  0  0  0  0  0  0  0  0  0  0  0
   16.0463  -10.7254    0.0000 C   0  0  0  0  0  0  0  0  0  0  0  0
   15.3451  -10.3129    0.0000 S   0  0  0  0  0  0  0  0  0  0  0  0
   13.7777  -10.7254    0.0000 C   0  0  1  0  0  0  0  0  0  0  0  0
   13.7777  -11.5092    0.0000 C   0  0  0  0  0  0  0  0  0  0  0  0
   13.0765  -10.3129    0.0000 N   0  0  0  0  0  0  0  0  0  0  0  0
   12.3752  -10.7254    0.0000 C   0  0  0  0  0  0  0  0  0  0  0  0
   12.3752  -11.5092    0.0000 O   0  0  0  0  0  0  0  0  0  0  0  0
   13.0765  -11.9216    0.0000 O   0  0  0  0  0  0  0  0  0  0  0  0
   11.6740  -10.3129    0.0000 C   0  0  0  0  0  0  0  0  0  0  0  0
   16.7476  -11.9629    0.0000 C   0  0  0  0  0  0  0  0  0  0  0  0
   10.9315  -10.7254    0.0000 C   0  0  0  0  0  0  0  0  0  0  0  0
   14.6027   -9.9004    0.0000 H   0  0  0  0  0  0  0  0  0  0  0  0
   10.2715  -10.2304    0.0000 C   0  0  0  0  0  0  0  0  0  0  0  0
    9.6115  -10.7254    0.0000 S   0  0  0  0  0  0  0  0  0  0  0  0
    9.8590  -11.5504    0.0000 C   0  0  0  0  0  0  0  0  0  0  0  0
   10.6840  -11.5504    0.0000 N   0  0  0  0  0  0  0  0  0  0  0  0
   11.6740   -9.4467    0.0000 N   0  0  0  0  0  0  0  0  0  0  0  0
   15.3451  -12.7466    0.0000 C   0  0  0  0  0  0  0  0  0  0  0  0
   16.0463  -13.2004    0.0000 O   0  0  0  0  0  0  0  0  0  0  0  0
   14.6027  -13.1591    0.0000 O   0  0  0  0  0  0  0  0  0  0  0  0
   17.4488  -11.5504    0.0000 S   0  0  0  0  0  0  0  0  0  0  0  0
   18.1501  -11.9629    0.0000 C   0  0  0  0  0  0  0  0  0  0  0  0
    9.3641  -12.2103    0.0000 N   0  0  0  0  0  0  0  0  0  0  0  0
   18.1501  -12.7879    0.0000 N   0  0  0  0  0  0  0  0  0  0  0  0
   18.8513  -13.2004    0.0000 C   0  0  0  0  0  0  0  0  0  0  0  0
   19.5938  -12.7879    0.0000 C   0  0  0  0  0  0  0  0  0  0  0  0
   19.5938  -11.9629    0.0000 N   0  0  0  0  0  0  0  0  0  0  0  0
   18.8513  -11.5504    0.0000 N   0  0  0  0  0  0  0  0  0  0  0  0
   18.8513  -14.0254    0.0000 O   0  0  0  0  0  0  0  0  0  0  0  0
   20.2950  -13.2004    0.0000 O   0  0  0  0  0  0  0  0  0  0  0  0
   18.8513  -10.7254    0.0000 C   0  0  0  0  0  0  0  0  0  0  0  0
   12.3854   -9.0281    0.0000 O   0  0  0  0  0  0  0  0  0  0  0  0
   12.3854   -8.2030    0.0000 C   0  0  0  0  0  0  0  0  0  0  0  0
  1  2  1  0  0  0  0
  2  3  1  0  0  0  0
  3  4  2  0  0  0  0
  4  5  1  0  0  0  0
  5  6  1  0  0  0  0
  1  6  1  0  0  0  0
  1  7  1  0  0  0  0
  7  8  1  0  0  0  0
  2  8  1  0  0  0  0
  7  9  1  1  0  0  0
  9 10  1  0  0  0  0
 10 11  2  0  0  0  0
  8 12  2  0  0  0  0
 10 13  1  0  0  0  0
  4 14  1  0  0  0  0
 13 15  1  0  0  0  0
  1 16  1  6  0  0  0
 15 17  2  0  0  0  0
 17 18  1  0  0  0  0
 18 19  1  0  0  0  0
 19 20  2  0  0  0  0
 15 20  1  0  0  0  0
 13 21  2  0  0  0  0
  3 22  1  0  0  0  0
 22 23  1  0  0  0  0
 22 24  2  0  0  0  0
 14 25  1  0  0  0  0
 25 26  1  0  0  0  0
 19 27  1  0  0  0  0
 26 28  2  0  0  0  0
 28 29  1  0  0  0  0
 29 30  1  0  0  0  0
 30 31  1  0  0  0  0
 31 32  1  0  0  0  0
 26 32  1  0  0  0  0
 29 33  2  0  0  0  0
 30 34  2  0  0  0  0
 32 35  1  0  0  0  0
 21 36  1  0  0  0  0
 36 37  1  0  0  0  0
M  END

>  <ACTIVITY>
5.00
$$$$
3514

  Mrv0541 05041708502D          

 85 80  0  0  0  0            999 V2000
   13.5713  -11.0552    0.0000 C   0  0  2  0  0  0  0  0  0  0  0  0
   13.5713  -11.8390    0.0000 N   0  0  0  0  0  0  0  0  0  0  0  0
   14.3137  -12.2514    0.0000 C   0  0  0  0  0  0  0  0  0  0  0  0
   15.0150  -11.8390    0.0000 C   0  0  0  0  0  0  0  0  0  0  0  0
   15.0150  -11.0552    0.0000 C   0  0  0  0  0  0  0  0  0  0  0  0
   14.3137  -10.6427    0.0000 S   0  0  0  0  0  0  0  0  0  0  0  0
   12.7463  -11.0552    0.0000 C   0  0  1  0  0  0  0  0  0  0  0  0
   12.7463  -11.8390    0.0000 C   0  0  0  0  0  0  0  0  0  0  0  0
   12.0450  -10.6427    0.0000 N   0  0  0  0  0  0  0  0  0  0  0  0
   11.3439  -11.0552    0.0000 C   0  0  0  0  0  0  0  0  0  0  0  0
   11.3439  -11.8390    0.0000 O   0  0  0  0  0  0  0  0  0  0  0  0
   12.0450  -12.2514    0.0000 O   0  0  0  0  0  0  0  0  0  0  0  0
   10.6426  -10.6427    0.0000 C   0  0  0  0  0  0  0  0  0  0  0  0
   15.7162  -12.2927    0.0000 C   0  0  0  0  0  0  0  0  0  0  0  0
    9.9001  -11.0552    0.0000 C   0  0  0  0  0  0  0  0  0  0  0  0
   13.5713  -10.2302    0.0000 H   0  0  0  0  0  0  0  0  0  0  0  0
    9.2402  -10.5603    0.0000 C   0  0  0  0  0  0  0  0  0  0  0  0
    8.5801  -11.0552    0.0000 S   0  0  0  0  0  0  0  0  0  0  0  0
    8.8277  -11.8801    0.0000 C   0  0  0  0  0  0  0  0  0  0  0  0
    9.6527  -11.8801    0.0000 N   0  0  0  0  0  0  0  0  0  0  0  0
   10.6426   -9.7765    0.0000 N   0  0  0  0  0  0  0  0  0  0  0  0
   14.3137  -13.0764    0.0000 C   0  0  0  0  0  0  0  0  0  0  0  0
   15.0150  -13.5301    0.0000 O   0  5  0  0  0  0  0  0  0  0  0  0
   13.5713  -13.4889    0.0000 O   0  0  0  0  0  0  0  0  0  0  0  0
   16.4174  -11.8801    0.0000 S   0  0  0  0  0  0  0  0  0  0  0  0
   17.1187  -12.2927    0.0000 C   0  0  0  0  0  0  0  0  0  0  0  0
    8.3327  -12.5402    0.0000 N   0  0  0  0  0  0  0  0  0  0  0  0
   17.1187  -13.1177    0.0000 N   0  0  0  0  0  0  0  0  0  0  0  0
   17.8199  -13.5301    0.0000 C   0  0  0  0  0  0  0  0  0  0  0  0
   18.5624  -13.1177    0.0000 C   0  0  0  0  0  0  0  0  0  0  0  0
   18.5624  -12.2927    0.0000 N   0  5  0  0  0  0  0  0  0  0  0  0
   17.8199  -11.8801    0.0000 N   0  0  0  0  0  0  0  0  0  0  0  0
   17.8199  -14.3551    0.0000 O   0  0  0  0  0  0  0  0  0  0  0  0
   19.2637  -13.5301    0.0000 O   0  0  0  0  0  0  0  0  0  0  0  0
   17.8199  -11.0552    0.0000 C   0  0  0  0  0  0  0  0  0  0  0  0
   11.3540   -9.3580    0.0000 O   0  0  0  0  0  0  0  0  0  0  0  0
   11.3473   -8.5391    0.0000 C   0  0  0  0  0  0  0  0  0  0  0  0
   15.8812  -13.4889    0.0000 Na  0  3  0  0  0  0  0  0  0  0  0  0
   19.3461  -12.2927    0.0000 Na  0  3  0  0  0  0  0  0  0  0  0  0
   21.7798  -12.1689    0.0000 O   0  0  0  0  0  0  0  0  0  0  0  0
   13.5713  -11.0552    0.0000 C   0  0  2  0  0  0  0  0  0  0  0  0
   13.5713  -11.8390    0.0000 N   0  0  0  0  0  0  0  0  0  0  0  0
   14.3137  -12.2514    0.0000 C   0  0  0  0  0  0  0  0  0  0  0  0
   15.0150  -11.8390    0.0000 C   0  0  0  0  0  0  0  0  0  0  0  0
   15.0150  -11.0552    0.0000 C   0  0  0  0  0  0  0  0  0  0  0  0
   14.3137  -10.6427    0.0000 S   0  0  0  0  0  0  0  0  0  0  0  0
   12.7463  -11.0552    0.0000 C   0  0  1  0  0  0  0  0  0  0  0  0
   12.7463  -11.8390    0.0000 C   0  0  0  0  0  0  0  0  0  0  0  0
   12.0450  -10.6427    0.0000 N   0  0  0  0  0  0  0  0  0  0  0  0
   11.3439  -11.0552    0.0000 C   0  0  0  0  0  0  0  0  0  0  0  0
   11.3439  -11.8390    0.0000 O   0  0  0  0  0  0  0  0  0  0  0  0
   12.0450  -12.2514    0.0000 O   0  0  0  0  0  0  0  0  0  0  0  0
   10.6426  -10.6427    0.0000 C   0  0  0  0  0  0  0  0  0  0  0  0
   15.7162  -12.2927    0.0000 C   0  0  0  0  0  0  0  0  0  0  0  0
    9.9001  -11.0552    0.0000 C   0  0  0  0  0  0  0  0  0  0  0  0
   13.5713  -10.2302    0.0000 H   0  0  0  0  0  0  0  0  0  0  0  0
    9.2402  -10.5603    0.0000 C   0  0  0  0  0  0  0  0  0  0  0  0
    8.5801  -11.0552    0.0000 S   0  0  0  0  0  0  0  0  0  0  0  0
    8.8277  -11.8801    0.0000 C   0  0  0  0  0  0  0  0  0  0  0  0
    9.6527  -11.8801    0.0000 N   0  0  0  0  0  0  0  0  0  0  0  0
   10.6426   -9.7765    0.0000 N   0  0  0  0  0  0  0  0  0  0  0  0
   14.3137  -13.0764    0.0000 C   0  0  0  0  0  0  0  0  0  0  0  0
   15.0150  -13.5301    0.0000 O   0  5  0  0  0  0  0  0  0  0  0  0
   13.5713  -13.4889    0.0000 O   0  0  0  0  0  0  0  0  0  0  0  0
   16.4174  -11.8801    0.0000 S   0  0  0  0  0  0  0  0  0  0  0  0
   17.1187  -12.2927    0.0000 C   0  0  0  0  0  0  0  0  0  0  0  0
    8.3327  -12.5402    0.0000 N   0  0  0  0  0  0  0  0  0  0  0  0
   17.1187  -13.1177    0.0000 N   0  0  0  0  0  0  0  0  0  0  0  0
   17.8199  -13.5301    0.0000 C   0  0  0  0  0  0  0  0  0  0  0  0
   18.5624  -13.1177    0.0000 C   0  0  0  0  0  0  0  0  0  0  0  0
   18.5624  -12.2927    0.0000 N   0  5  0  0  0  0  0  0  0  0  0  0
   17.8199  -11.8801    0.0000 N   0  0  0  0  0  0  0  0  0  0  0  0
   17.8199  -14.3551    0.0000 O   0  0  0  0  0  0  0  0  0  0  0  0
   19.2637  -13.5301    0.0000 O   0  0  0  0  0  0  0  0  0  0  0  0
   17.8199  -11.0552    0.0000 C   0  0  0  0  0  0  0  0  0  0  0  0
   11.3540   -9.3580    0.0000 O   0  0  0  0  0  0  0  0  0  0  0  0
   11.3473   -8.5391    0.0000 C   0  0  0  0  0  0  0  0  0  0  0  0
   15.8812  -13.4889    0.0000 Na  0  3  0  0  0  0  0  0  0  0  0  0
   19.3461  -12.2927    0.0000 Na  0  3  0  0  0  0  0  0  0  0  0  0
   21.7798  -12.1689    0.0000 O   0  0  0  0  0  0  0  0  0  0  0  0
   21.7798  -12.1689    0.0000 O   0  0  0  0  0  0  0  0  0  0  0  0
   21.7798  -12.1689    0.0000 O   0  0  0  0  0  0  0  0  0  0  0  0
   21.7798  -12.1689    0.0000 O   0  0  0  0  0  0  0  0  0  0  0  0
   21.7798  -12.1689    0.0000 O   0  0  0  0  0  0  0  0  0  0  0  0
   21.7798  -12.1689    0.0000 O   0  0  0  0  0  0  0  0  0  0  0  0
  1  2  1  0  0  0  0
  2  3  1  0  0  0  0
  3  4  2  0  0  0  0
  4  5  1  0  0  0  0
  5  6  1  0  0  0  0
  1  6  1  0  0  0  0
  1  7  1  0  0  0  0
  7  8  1  0  0  0  0
  2  8  1  0  0  0  0
  7  9  1  1  0  0  0
  9 10  1  0  0  0  0
 10 11  2  0  0  0  0
  8 12  2  0  0  0  0
 10 13  1  0  0  0  0
  4 14  1  0  0  0  0
 13 15  1  0  0  0  0
  1 16  1  6  0  0  0
 15 17  2  0  0  0  0
 17 18  1  0  0  0  0
 18 19  1  0  0  0  0
 19 20  2  0  0  0  0
 15 20  1  0  0  0  0
 13 21  2  0  0  0  0
  3 22  1  0  0  0  0
 22 23  1  0  0  0  0
 22 24  2  0  0  0  0
 14 25  1  0  0  0  0
 25 26  1  0  0  0  0
 19 27  1  0  0  0  0
 26 28  2  0  0  0  0
 28 29  1  0  0  0  0
 29 30  1  0  0  0  0
 30 31  1  0  0  0  0
 31 32  1  0  0  0  0
 26 32  1  0  0  0  0
 29 33  2  0  0  0  0
 30 34  2  0  0  0  0
 32 35  1  0  0  0  0
 21 36  1  0  0  0  0
 36 37  1  0  0  0  0
 41 42  1  0  0  0  0
 41 46  1  0  0  0  0
 41 47  1  0  0  0  0
 41 56  1  6  0  0  0
 42 43  1  0  0  0  0
 42 48  1  0  0  0  0
 43 44  2  0  0  0  0
 43 62  1  0  0  0  0
 44 45  1  0  0  0  0
 44 54  1  0  0  0  0
 45 46  1  0  0  0  0
 47 48  1  0  0  0  0
 47 49  1  1  0  0  0
 48 52  2  0  0  0  0
 49 50  1  0  0  0  0
 50 51  2  0  0  0  0
 50 53  1  0  0  0  0
 53 55  1  0  0  0  0
 53 61  2  0  0  0  0
 54 65  1  0  0  0  0
 55 57  2  0  0  0  0
 55 60  1  0  0  0  0
 57 58  1  0  0  0  0
 58 59  1  0  0  0  0
 59 60  2  0  0  0  0
 59 67  1  0  0  0  0
 61 76  1  0  0  0  0
 62 63  1  0  0  0  0
 62 64  2  0  0  0  0
 65 66  1  0  0  0  0
 66 68  2  0  0  0  0
 66 72  1  0  0  0  0
 68 69  1  0  0  0  0
 69 70  1  0  0  0  0
 69 73  2  0  0  0  0
 70 71  1  0  0  0  0
 70 74  2  0  0  0  0
 71 72  1  0  0  0  0
 72 75  1  0  0  0  0
 76 77  1  0  0  0  0
M  CHG  8  23  -1  31  -1  38   1  39   1  63  -1  71  -1  78   1  79   1
M  END

>  <ACTIVITY>
5.00
$$$$
53658

  Mrv0541 05041708502D          

 37 40  0  0  1  0            999 V2000
   11.8615   -4.8978    0.0000 C   0  0  2  0  0  0  0  0  0  0  0  0
   11.8615   -5.6815    0.0000 N   0  0  0  0  0  0  0  0  0  0  0  0
   12.6039   -6.0940    0.0000 C   0  0  0  0  0  0  0  0  0  0  0  0
   13.3051   -5.6815    0.0000 C   0  0  0  0  0  0  0  0  0  0  0  0
   13.3051   -4.8978    0.0000 C   0  0  0  0  0  0  0  0  0  0  0  0
   12.6039   -4.4853    0.0000 S   0  0  0  0  0  0  0  0  0  0  0  0
   11.0365   -4.8978    0.0000 C   0  0  1  0  0  0  0  0  0  0  0  0
   11.0365   -5.6815    0.0000 C   0  0  0  0  0  0  0  0  0  0  0  0
   10.3353   -4.4853    0.0000 N   0  0  0  0  0  0  0  0  0  0  0  0
    9.6341   -4.8978    0.0000 C   0  0  0  0  0  0  0  0  0  0  0  0
    9.6341   -5.6815    0.0000 O   0  0  0  0  0  0  0  0  0  0  0  0
   10.3353   -6.0940    0.0000 O   0  0  0  0  0  0  0  0  0  0  0  0
    8.9328   -4.4853    0.0000 C   0  0  0  0  0  0  0  0  0  0  0  0
   14.0064   -6.1353    0.0000 C   0  0  0  0  0  0  0  0  0  0  0  0
    8.1903   -4.8978    0.0000 C   0  0  0  0  0  0  0  0  0  0  0  0
   11.8615   -4.0728    0.0000 H   0  0  0  0  0  0  0  0  0  0  0  0
    7.5303   -4.4028    0.0000 C   0  0  0  0  0  0  0  0  0  0  0  0
    6.8703   -4.8978    0.0000 S   0  0  0  0  0  0  0  0  0  0  0  0
    7.1179   -5.7227    0.0000 C   0  0  0  0  0  0  0  0  0  0  0  0
    7.9429   -5.7227    0.0000 N   0  0  0  0  0  0  0  0  0  0  0  0
    8.9328   -3.6191    0.0000 N   0  0  0  0  0  0  0  0  0  0  0  0
   12.6039   -6.9190    0.0000 C   0  0  0  0  0  0  0  0  0  0  0  0
   13.3051   -7.3437    0.0000 O   0  5  0  0  0  0  0  0  0  0  0  0
   11.8615   -7.3315    0.0000 O   0  0  0  0  0  0  0  0  0  0  0  0
   14.7076   -5.7227    0.0000 S   0  0  0  0  0  0  0  0  0  0  0  0
   15.4089   -6.1353    0.0000 C   0  0  0  0  0  0  0  0  0  0  0  0
    6.6229   -6.3827    0.0000 N   0  0  0  0  0  0  0  0  0  0  0  0
   15.4089   -6.9603    0.0000 N   0  0  0  0  0  0  0  0  0  0  0  0
   16.1101   -7.3727    0.0000 C   0  0  0  0  0  0  0  0  0  0  0  0
   16.8526   -6.9603    0.0000 C   0  0  0  0  0  0  0  0  0  0  0  0
   16.8526   -6.1353    0.0000 N   0  0  0  0  0  0  0  0  0  0  0  0
   16.1101   -5.7227    0.0000 N   0  0  0  0  0  0  0  0  0  0  0  0
   16.1101   -8.1977    0.0000 O   0  0  0  0  0  0  0  0  0  0  0  0
   17.5538   -7.3727    0.0000 O   0  0  0  0  0  0  0  0  0  0  0  0
   16.1101   -4.8978    0.0000 C   0  0  0  0  0  0  0  0  0  0  0  0
    9.6442   -3.2004    0.0000 O   0  0  0  0  0  0  0  0  0  0  0  0
    9.6442   -2.3754    0.0000 C   0  0  0  0  0  0  0  0  0  0  0  0
  1  2  1  0  0  0  0
  2  3  1  0  0  0  0
  3  4  2  0  0  0  0
  4  5  1  0  0  0  0
  5  6  1  0  0  0  0
  1  6  1  0  0  0  0
  1  7  1  0  0  0  0
  7  8  1  0  0  0  0
  2  8  1  0  0  0  0
  7  9  1  1  0  0  0
  9 10  1  0  0  0  0
 10 11  2  0  0  0  0
  8 12  2  0  0  0  0
 10 13  1  0  0  0  0
  4 14  1  0  0  0  0
 13 15  1  0  0  0  0
  1 16  1  6  0  0  0
 15 17  2  0  0  0  0
 17 18  1  0  0  0  0
 18 19  1  0  0  0  0
 19 20  2  0  0  0  0
 15 20  1  0  0  0  0
 13 21  2  0  0  0  0
  3 22  1  0  0  0  0
 22 23  1  0  0  0  0
 22 24  2  0  0  0  0
 14 25  1  0  0  0  0
 25 26  1  0  0  0  0
 19 27  1  0  0  0  0
 26 28  2  0  0  0  0
 28 29  1  0  0  0  0
 29 30  1  0  0  0  0
 30 31  1  0  0  0  0
 31 32  1  0  0  0  0
 26 32  1  0  0  0  0
 29 33  2  0  0  0  0
 30 34  2  0  0  0  0
 32 35  1  0  0  0  0
 21 36  1  0  0  0  0
 36 37  1  0  0  0  0
M  CHG  1  23  -1
M  END

>  <ACTIVITY>
5.00
$$$$
37943

  Mrv0541 05041708502D          

 82 82  0  0  1  0            999 V2000
    6.6359   -4.7642    0.0000 C   0  0  0  0  0  0  0  0  0  0  0  0
    7.3516   -4.3566    0.0000 C   0  0  0  0  0  0  0  0  0  0  0  0
    8.0635   -4.7733    0.0000 N   0  0  0  0  0  0  0  0  0  0  0  0
    7.3565   -3.5316    0.0000 O   0  0  0  0  0  0  0  0  0  0  0  0
    8.7828   -4.3665    0.0000 C   0  0  2  0  0  0  0  0  0  0  0  0
    9.4936   -4.7854    0.0000 C   0  0  0  0  0  0  0  0  0  0  0  0
   10.2118   -4.3793    0.0000 N   0  0  0  0  0  0  0  0  0  0  0  0
    9.4863   -5.6103    0.0000 O   0  0  0  0  0  0  0  0  0  0  0  0
    8.7828   -3.5415    0.0000 C   0  0  0  0  0  0  0  0  0  0  0  0
    8.0684   -3.1290    0.0000 C   0  0  0  0  0  0  0  0  0  0  0  0
    8.0684   -2.3040    0.0000 N   0  0  0  0  0  0  0  0  0  0  0  0
   10.9311   -4.7861    0.0000 C   0  0  2  0  0  0  0  0  0  0  0  0
   11.6419   -4.3672    0.0000 C   0  0  0  0  0  0  0  0  0  0  0  0
   12.3602   -4.7733    0.0000 N   0  0  0  0  0  0  0  0  0  0  0  0
   11.6347   -3.5422    0.0000 O   0  0  0  0  0  0  0  0  0  0  0  0
   10.9311   -5.6111    0.0000 C   0  0  1  0  0  0  0  0  0  0  0  0
   10.2167   -6.0236    0.0000 C   0  0  0  0  0  0  0  0  0  0  0  0
   11.6455   -6.0236    0.0000 O   0  0  0  0  0  0  0  0  0  0  0  0
   13.0795   -4.3665    0.0000 C   0  0  2  0  0  0  0  0  0  0  0  0
   13.7900   -4.7854    0.0000 C   0  0  0  0  0  0  0  0  0  0  0  0
   14.5083   -4.3793    0.0000 N   0  0  0  0  0  0  0  0  0  0  0  0
   13.7828   -5.6103    0.0000 O   0  0  0  0  0  0  0  0  0  0  0  0
   13.0795   -3.5415    0.0000 C   0  0  0  0  0  0  0  0  0  0  0  0
   12.3648   -3.1290    0.0000 C   0  0  0  0  0  0  0  0  0  0  0  0
   12.3648   -2.3040    0.0000 N   0  0  0  0  0  0  0  0  0  0  0  0
   15.2276   -4.7861    0.0000 C   0  0  2  0  0  0  0  0  0  0  0  0
   15.9384   -4.3672    0.0000 C   0  0  0  0  0  0  0  0  0  0  0  0
   16.6564   -4.7733    0.0000 N   0  0  0  0  0  0  0  0  0  0  0  0
   15.9309   -3.5422    0.0000 O   0  0  0  0  0  0  0  0  0  0  0  0
   15.2276   -5.6111    0.0000 C   0  0  0  0  0  0  0  0  0  0  0  0
   17.3757   -4.3665    0.0000 C   0  0  2  0  0  0  0  0  0  0  0  0
   18.0865   -4.7854    0.0000 C   0  0  0  0  0  0  0  0  0  0  0  0
   18.0792   -5.6103    0.0000 N   0  0  0  0  0  0  0  0  0  0  0  0
   18.8047   -4.3793    0.0000 O   0  0  0  0  0  0  0  0  0  0  0  0
   17.3757   -3.5415    0.0000 C   0  0  0  0  0  0  0  0  0  0  0  0
   16.6613   -3.1290    0.0000 C   0  0  0  0  0  0  0  0  0  0  0  0
   16.6613   -2.3040    0.0000 N   0  0  0  0  0  0  0  0  0  0  0  0
   18.7836   -6.0425    0.0000 C   0  0  1  0  0  0  0  0  0  0  0  0
   18.7617   -6.8672    0.0000 C   0  0  0  0  0  0  0  0  0  0  0  0
   18.0362   -7.2604    0.0000 N   0  0  0  0  0  0  0  0  0  0  0  0
   19.4647   -7.2986    0.0000 O   0  0  0  0  0  0  0  0  0  0  0  0
   19.5052   -5.6428    0.0000 C   0  0  0  0  0  0  0  0  0  0  0  0
   20.2124   -6.0679    0.0000 C   0  0  0  0  0  0  0  0  0  0  0  0
   17.9996   -8.0861    0.0000 C   0  0  2  0  0  0  0  0  0  0  0  0
   17.2674   -8.4664    0.0000 C   0  0  0  0  0  0  0  0  0  0  0  0
   17.2308   -9.2906    0.0000 N   0  0  0  0  0  0  0  0  0  0  0  0
   16.5721   -8.0224    0.0000 O   0  0  0  0  0  0  0  0  0  0  0  0
   18.6988   -8.5237    0.0000 C   0  0  0  0  0  0  0  0  0  0  0  0
   18.6694   -9.3482    0.0000 C   0  0  0  0  0  0  0  0  0  0  0  0
   16.5043   -9.6844    0.0000 C   0  0  2  0  0  0  0  0  0  0  0  0
   15.8010   -9.2530    0.0000 C   0  0  0  0  0  0  0  0  0  0  0  0
   15.0757   -9.6462    0.0000 N   0  0  0  0  0  0  0  0  0  0  0  0
   15.8231   -8.4283    0.0000 O   0  0  0  0  0  0  0  0  0  0  0  0
   16.4896  -10.5093    0.0000 C   0  0  0  0  0  0  0  0  0  0  0  0
   17.1965  -10.9345    0.0000 C   0  0  0  0  0  0  0  0  0  0  0  0
   17.1818  -11.7592    0.0000 N   0  0  0  0  0  0  0  0  0  0  0  0
   14.3639   -9.2267    0.0000 C   0  0  2  0  0  0  0  0  0  0  0  0
   14.3711   -8.4017    0.0000 C   0  0  0  0  0  0  0  0  0  0  0  0
   13.6606   -7.9828    0.0000 N   0  0  0  0  0  0  0  0  0  0  0  0
   15.0894   -7.9956    0.0000 O   0  0  0  0  0  0  0  0  0  0  0  0
   13.6493   -9.6392    0.0000 C   0  0  0  0  0  0  0  0  0  0  0  0
   13.6493  -10.4642    0.0000 C   0  0  0  0  0  0  0  0  0  0  0  0
   12.9349  -10.8767    0.0000 N   0  0  0  0  0  0  0  0  0  0  0  0
   13.6531   -7.1565    0.0000 C   0  0  2  0  0  0  0  0  0  0  0  0
   14.3639   -6.7376    0.0000 C   0  0  0  0  0  0  0  0  0  0  0  0
   14.3564   -5.9127    0.0000 O   0  0  0  0  0  0  0  0  0  0  0  0
   15.0819   -7.1438    0.0000 N   0  0  0  0  0  0  0  0  0  0  0  0
   12.9315   -6.7568    0.0000 C   0  0  1  0  0  0  0  0  0  0  0  0
   12.2243   -7.1820    0.0000 C   0  0  0  0  0  0  0  0  0  0  0  0
   12.9168   -5.9319    0.0000 O   0  0  0  0  0  0  0  0  0  0  0  0
   15.9420   -6.0236    0.0000 C   0  0  0  0  0  0  0  0  0  0  0  0
    6.6360   -5.5892    0.0000 C   0  0  0  0  0  0  0  0  0  0  0  0
    7.3506   -6.0015    0.0000 C   0  0  0  0  0  0  0  0  0  0  0  0
    7.3508   -6.8265    0.0000 C   0  0  0  0  0  0  0  0  0  0  0  0
    8.0653   -7.2387    0.0000 C   0  0  1  0  0  0  0  0  0  0  0  0
    8.0655   -8.0637    0.0000 C   0  0  0  0  0  0  0  0  0  0  0  0
    8.7797   -6.8262    0.0000 C   0  0  0  0  0  0  0  0  0  0  0  0
    8.7801   -8.4762    0.0000 R   0  0  0  0  0  0  0  0  0  0  0  0
   20.1977   -6.8927    0.0000 C   0  0  0  0  0  0  0  0  0  0  0  0
   20.9340   -5.6681    0.0000 C   0  0  0  0  0  0  0  0  0  0  0  0
   17.9408   -9.7351    0.0000 C   0  0  0  0  0  0  0  0  0  0  0  0
   19.3688   -9.7859    0.0000 C   0  0  0  0  0  0  0  0  0  0  0  0
  1  2  1  0  0  0  0
  2  3  1  0  0  0  0
  2  4  2  0  0  0  0
  5  3  1  1  0  0  0
  5  6  1  0  0  0  0
  6  7  1  0  0  0  0
  6  8  2  0  0  0  0
  5  9  1  0  0  0  0
  9 10  1  0  0  0  0
 10 11  1  0  0  0  0
 12  7  1  6  0  0  0
 12 13  1  0  0  0  0
 13 14  1  0  0  0  0
 13 15  2  0  0  0  0
 12 16  1  0  0  0  0
 16 17  1  0  0  0  0
 16 18  1  6  0  0  0
 19 14  1  1  0  0  0
 19 20  1  0  0  0  0
 20 21  1  0  0  0  0
 20 22  2  0  0  0  0
 19 23  1  0  0  0  0
 23 24  1  0  0  0  0
 24 25  1  0  0  0  0
 26 21  1  6  0  0  0
 26 27  1  0  0  0  0
 27 28  1  0  0  0  0
 27 29  2  0  0  0  0
 26 30  1  0  0  0  0
 31 28  1  1  0  0  0
 31 32  1  0  0  0  0
 32 33  1  0  0  0  0
 32 34  2  0  0  0  0
 31 35  1  0  0  0  0
 35 36  1  0  0  0  0
 36 37  1  0  0  0  0
 38 33  1  6  0  0  0
 38 39  1  0  0  0  0
 39 40  1  0  0  0  0
 39 41  2  0  0  0  0
 38 42  1  0  0  0  0
 42 43  1  0  0  0  0
 44 40  1  1  0  0  0
 44 45  1  0  0  0  0
 45 46  1  0  0  0  0
 45 47  2  0  0  0  0
 44 48  1  0  0  0  0
 48 49  1  0  0  0  0
 50 46  1  1  0  0  0
 50 51  1  0  0  0  0
 51 52  1  0  0  0  0
 51 53  2  0  0  0  0
 50 54  1  0  0  0  0
 54 55  1  0  0  0  0
 55 56  1  0  0  0  0
 57 52  1  1  0  0  0
 57 58  1  0  0  0  0
 58 59  1  0  0  0  0
 58 60  2  0  0  0  0
 57 61  1  0  0  0  0
 61 62  1  0  0  0  0
 62 63  1  0  0  0  0
 64 59  1  1  0  0  0
 64 65  1  0  0  0  0
 65 66  2  0  0  0  0
 65 67  1  0  0  0  0
 64 68  1  0  0  0  0
 68 69  1  0  0  0  0
 68 70  1  1  0  0  0
 30 71  1  0  0  0  0
 71 67  1  0  0  0  0
  1 72  1  0  0  0  0
 72 73  1  0  0  0  0
 73 74  1  0  0  0  0
 74 75  1  0  0  0  0
 75 76  1  0  0  0  0
 75 77  1  6  0  0  0
 76 78  1  0  0  0  0
 43 79  1  0  0  0  0
 43 80  1  0  0  0  0
 49 81  1  0  0  0  0
 49 82  1  0  0  0  0
M  END

>  <ACTIVITY>
5.00
$$$$
59674

  Mrv0541 05041708502D          

189184  0  0  1  0            999 V2000
    6.1056  -16.4026    0.0000 C   0  0  0  0  0  0  0  0  0  0  0  0
    6.8213  -15.9950    0.0000 C   0  0  0  0  0  0  0  0  0  0  0  0
    7.5332  -16.4117    0.0000 N   0  0  0  0  0  0  0  0  0  0  0  0
    6.8262  -15.1700    0.0000 O   0  0  0  0  0  0  0  0  0  0  0  0
    8.2525  -16.0049    0.0000 C   0  0  2  0  0  0  0  0  0  0  0  0
    8.9633  -16.4238    0.0000 C   0  0  0  0  0  0  0  0  0  0  0  0
    9.6815  -16.0177    0.0000 N   0  0  0  0  0  0  0  0  0  0  0  0
    8.9560  -17.2487    0.0000 O   0  0  0  0  0  0  0  0  0  0  0  0
    8.2525  -15.1799    0.0000 C   0  0  0  0  0  0  0  0  0  0  0  0
    7.5381  -14.7674    0.0000 C   0  0  0  0  0  0  0  0  0  0  0  0
    7.5381  -13.9424    0.0000 N   0  3  0  0  0  0  0  0  0  0  0  0
   10.4008  -16.4245    0.0000 C   0  0  2  0  0  0  0  0  0  0  0  0
   11.1116  -16.0056    0.0000 C   0  0  0  0  0  0  0  0  0  0  0  0
   11.8298  -16.4117    0.0000 N   0  0  0  0  0  0  0  0  0  0  0  0
   11.1043  -15.1806    0.0000 O   0  0  0  0  0  0  0  0  0  0  0  0
   10.4008  -17.2495    0.0000 C   0  0  1  0  0  0  0  0  0  0  0  0
    9.6864  -17.6620    0.0000 C   0  0  0  0  0  0  0  0  0  0  0  0
   11.1152  -17.6620    0.0000 O   0  0  0  0  0  0  0  0  0  0  0  0
   12.5491  -16.0049    0.0000 C   0  0  2  0  0  0  0  0  0  0  0  0
   13.2597  -16.4238    0.0000 C   0  0  0  0  0  0  0  0  0  0  0  0
   13.9779  -16.0177    0.0000 N   0  0  0  0  0  0  0  0  0  0  0  0
   13.2525  -17.2487    0.0000 O   0  0  0  0  0  0  0  0  0  0  0  0
   12.5491  -15.1799    0.0000 C   0  0  0  0  0  0  0  0  0  0  0  0
   11.8345  -14.7674    0.0000 C   0  0  0  0  0  0  0  0  0  0  0  0
   11.8345  -13.9424    0.0000 N   0  3  0  0  0  0  0  0  0  0  0  0
   14.6973  -16.4245    0.0000 C   0  0  2  0  0  0  0  0  0  0  0  0
   15.4080  -16.0056    0.0000 C   0  0  0  0  0  0  0  0  0  0  0  0
   16.1261  -16.4117    0.0000 N   0  0  0  0  0  0  0  0  0  0  0  0
   15.4006  -15.1806    0.0000 O   0  0  0  0  0  0  0  0  0  0  0  0
   14.6973  -17.2495    0.0000 C   0  0  0  0  0  0  0  0  0  0  0  0
   16.8454  -16.0049    0.0000 C   0  0  2  0  0  0  0  0  0  0  0  0
   17.5562  -16.4238    0.0000 C   0  0  0  0  0  0  0  0  0  0  0  0
   17.5489  -17.2487    0.0000 N   0  0  0  0  0  0  0  0  0  0  0  0
   18.2744  -16.0177    0.0000 O   0  0  0  0  0  0  0  0  0  0  0  0
   16.8454  -15.1799    0.0000 C   0  0  0  0  0  0  0  0  0  0  0  0
   16.1310  -14.7674    0.0000 C   0  0  0  0  0  0  0  0  0  0  0  0
   16.1310  -13.9424    0.0000 N   0  3  0  0  0  0  0  0  0  0  0  0
   18.2533  -17.6809    0.0000 C   0  0  1  0  0  0  0  0  0  0  0  0
   18.2313  -18.5056    0.0000 C   0  0  0  0  0  0  0  0  0  0  0  0
   17.5059  -18.8988    0.0000 N   0  0  0  0  0  0  0  0  0  0  0  0
   18.9344  -18.9370    0.0000 O   0  0  0  0  0  0  0  0  0  0  0  0
   18.9749  -17.2811    0.0000 C   0  0  0  0  0  0  0  0  0  0  0  0
   19.6820  -17.7063    0.0000 C   0  0  0  0  0  0  0  0  0  0  0  0
   17.4692  -19.7245    0.0000 C   0  0  2  0  0  0  0  0  0  0  0  0
   16.7371  -20.1048    0.0000 C   0  0  0  0  0  0  0  0  0  0  0  0
   16.7004  -20.9289    0.0000 N   0  0  0  0  0  0  0  0  0  0  0  0
   16.0417  -19.6608    0.0000 O   0  0  0  0  0  0  0  0  0  0  0  0
   18.1685  -20.1621    0.0000 C   0  0  0  0  0  0  0  0  0  0  0  0
   18.1391  -20.9866    0.0000 C   0  0  0  0  0  0  0  0  0  0  0  0
   15.9739  -21.3228    0.0000 C   0  0  2  0  0  0  0  0  0  0  0  0
   15.2707  -20.8914    0.0000 C   0  0  0  0  0  0  0  0  0  0  0  0
   14.5454  -21.2846    0.0000 N   0  0  0  0  0  0  0  0  0  0  0  0
   15.2928  -20.0667    0.0000 O   0  0  0  0  0  0  0  0  0  0  0  0
   15.9592  -22.1477    0.0000 C   0  0  0  0  0  0  0  0  0  0  0  0
   16.6662  -22.5729    0.0000 C   0  0  0  0  0  0  0  0  0  0  0  0
   16.6515  -23.3976    0.0000 N   0  3  0  0  0  0  0  0  0  0  0  0
   13.8335  -20.8651    0.0000 C   0  0  2  0  0  0  0  0  0  0  0  0
   13.8408  -20.0401    0.0000 C   0  0  0  0  0  0  0  0  0  0  0  0
   13.1302  -19.6212    0.0000 N   0  0  0  0  0  0  0  0  0  0  0  0
   14.5590  -19.6340    0.0000 O   0  0  0  0  0  0  0  0  0  0  0  0
   13.1190  -21.2776    0.0000 C   0  0  0  0  0  0  0  0  0  0  0  0
   13.1190  -22.1026    0.0000 C   0  0  0  0  0  0  0  0  0  0  0  0
   12.4046  -22.5151    0.0000 N   0  3  0  0  0  0  0  0  0  0  0  0
   13.1228  -18.7949    0.0000 C   0  0  2  0  0  0  0  0  0  0  0  0
   13.8336  -18.3760    0.0000 C   0  0  0  0  0  0  0  0  0  0  0  0
   13.8261  -17.5511    0.0000 O   0  0  0  0  0  0  0  0  0  0  0  0
   14.5516  -18.7822    0.0000 N   0  0  0  0  0  0  0  0  0  0  0  0
   12.4011  -18.3952    0.0000 C   0  0  1  0  0  0  0  0  0  0  0  0
   11.6940  -18.8204    0.0000 C   0  0  0  0  0  0  0  0  0  0  0  0
   12.3864  -17.5703    0.0000 O   0  0  0  0  0  0  0  0  0  0  0  0
   15.4117  -17.6620    0.0000 C   0  0  0  0  0  0  0  0  0  0  0  0
    6.1057  -17.2276    0.0000 C   0  0  0  0  0  0  0  0  0  0  0  0
    6.8203  -17.6399    0.0000 C   0  0  0  0  0  0  0  0  0  0  0  0
    6.8205  -18.4649    0.0000 C   0  0  0  0  0  0  0  0  0  0  0  0
    7.5350  -18.8771    0.0000 C   0  0  1  0  0  0  0  0  0  0  0  0
    7.5352  -19.7021    0.0000 C   0  0  0  0  0  0  0  0  0  0  0  0
    8.2494  -18.4646    0.0000 C   0  0  0  0  0  0  0  0  0  0  0  0
    8.2497  -20.1145    0.0000 C   0  0  0  0  0  0  0  0  0  0  0  0
   19.6674  -18.5311    0.0000 C   0  0  0  0  0  0  0  0  0  0  0  0
   20.4037  -17.3065    0.0000 C   0  0  0  0  0  0  0  0  0  0  0  0
   17.4104  -21.3735    0.0000 C   0  0  0  0  0  0  0  0  0  0  0  0
   18.8385  -21.4243    0.0000 C   0  0  0  0  0  0  0  0  0  0  0  0
    8.7235  -13.1592    0.0000 O   0  5  0  0  0  0  0  0  0  0  0  0
    9.4392  -12.7417    0.0000 S   0  0  0  0  0  0  0  0  0  0  0  0
   10.1555  -13.1510    0.0000 O   0  5  0  0  0  0  0  0  0  0  0  0
    9.8567  -12.0260    0.0000 O   0  0  0  0  0  0  0  0  0  0  0  0
    9.0218  -12.0360    0.0000 O   0  0  0  0  0  0  0  0  0  0  0  0
   11.7055  -13.1393    0.0000 O   0  5  0  0  0  0  0  0  0  0  0  0
   12.4212  -12.7218    0.0000 S   0  0  0  0  0  0  0  0  0  0  0  0
   13.1375  -13.1311    0.0000 O   0  5  0  0  0  0  0  0  0  0  0  0
   12.8386  -12.0062    0.0000 O   0  0  0  0  0  0  0  0  0  0  0  0
   12.0037  -12.0161    0.0000 O   0  0  0  0  0  0  0  0  0  0  0  0
   15.4727  -13.1393    0.0000 O   0  5  0  0  0  0  0  0  0  0  0  0
   16.1883  -12.7218    0.0000 S   0  0  0  0  0  0  0  0  0  0  0  0
   16.9046  -13.1311    0.0000 O   0  5  0  0  0  0  0  0  0  0  0  0
   16.6058  -12.0062    0.0000 O   0  0  0  0  0  0  0  0  0  0  0  0
   15.7708  -12.0161    0.0000 O   0  0  0  0  0  0  0  0  0  0  0  0
   18.8223  -13.1393    0.0000 O   0  5  0  0  0  0  0  0  0  0  0  0
   19.5380  -12.7218    0.0000 S   0  0  0  0  0  0  0  0  0  0  0  0
   20.2543  -13.1311    0.0000 O   0  5  0  0  0  0  0  0  0  0  0  0
   19.9555  -12.0062    0.0000 O   0  0  0  0  0  0  0  0  0  0  0  0
   19.1205  -12.0161    0.0000 O   0  0  0  0  0  0  0  0  0  0  0  0
    5.6223  -13.1393    0.0000 O   0  5  0  0  0  0  0  0  0  0  0  0
    6.3380  -12.7218    0.0000 S   0  0  0  0  0  0  0  0  0  0  0  0
    7.0543  -13.1311    0.0000 O   0  5  0  0  0  0  0  0  0  0  0  0
    6.7555  -12.0062    0.0000 O   0  0  0  0  0  0  0  0  0  0  0  0
    5.9205  -12.0161    0.0000 O   0  0  0  0  0  0  0  0  0  0  0  0
    6.5257   -4.2314    0.0000 C   0  0  0  0  0  0  0  0  0  0  0  0
    7.2414   -3.8239    0.0000 C   0  0  0  0  0  0  0  0  0  0  0  0
    7.9533   -4.2406    0.0000 N   0  0  0  0  0  0  0  0  0  0  0  0
    7.2463   -2.9989    0.0000 O   0  0  0  0  0  0  0  0  0  0  0  0
    8.6726   -3.8338    0.0000 C   0  0  2  0  0  0  0  0  0  0  0  0
    9.3834   -4.2527    0.0000 C   0  0  0  0  0  0  0  0  0  0  0  0
   10.1016   -3.8466    0.0000 N   0  0  0  0  0  0  0  0  0  0  0  0
    9.3761   -5.0776    0.0000 O   0  0  0  0  0  0  0  0  0  0  0  0
    8.6726   -3.0088    0.0000 C   0  0  0  0  0  0  0  0  0  0  0  0
    7.9582   -2.5963    0.0000 C   0  0  0  0  0  0  0  0  0  0  0  0
    7.9582   -1.7713    0.0000 N   0  3  0  0  0  0  0  0  0  0  0  0
   10.8209   -4.2534    0.0000 C   0  0  2  0  0  0  0  0  0  0  0  0
   11.5317   -3.8345    0.0000 C   0  0  0  0  0  0  0  0  0  0  0  0
   12.2500   -4.2406    0.0000 N   0  0  0  0  0  0  0  0  0  0  0  0
   11.5245   -3.0095    0.0000 O   0  0  0  0  0  0  0  0  0  0  0  0
   10.8209   -5.0784    0.0000 C   0  0  1  0  0  0  0  0  0  0  0  0
   10.1065   -5.4909    0.0000 C   0  0  0  0  0  0  0  0  0  0  0  0
   11.5353   -5.4909    0.0000 O   0  0  0  0  0  0  0  0  0  0  0  0
   12.9693   -3.8338    0.0000 C   0  0  2  0  0  0  0  0  0  0  0  0
   13.6798   -4.2527    0.0000 C   0  0  0  0  0  0  0  0  0  0  0  0
   14.3981   -3.8466    0.0000 N   0  0  0  0  0  0  0  0  0  0  0  0
   13.6726   -5.0776    0.0000 O   0  0  0  0  0  0  0  0  0  0  0  0
   12.9693   -3.0088    0.0000 C   0  0  0  0  0  0  0  0  0  0  0  0
   12.2546   -2.5963    0.0000 C   0  0  0  0  0  0  0  0  0  0  0  0
   12.2546   -1.7713    0.0000 N   0  3  0  0  0  0  0  0  0  0  0  0
   15.1174   -4.2534    0.0000 C   0  0  2  0  0  0  0  0  0  0  0  0
   15.8282   -3.8345    0.0000 C   0  0  0  0  0  0  0  0  0  0  0  0
   16.5462   -4.2406    0.0000 N   0  0  0  0  0  0  0  0  0  0  0  0
   15.8207   -3.0095    0.0000 O   0  0  0  0  0  0  0  0  0  0  0  0
   15.1174   -5.0784    0.0000 C   0  0  0  0  0  0  0  0  0  0  0  0
   17.2655   -3.8338    0.0000 C   0  0  2  0  0  0  0  0  0  0  0  0
   17.9763   -4.2527    0.0000 C   0  0  0  0  0  0  0  0  0  0  0  0
   17.9690   -5.0776    0.0000 N   0  0  0  0  0  0  0  0  0  0  0  0
   18.6945   -3.8465    0.0000 O   0  0  0  0  0  0  0  0  0  0  0  0
   17.2655   -3.0088    0.0000 C   0  0  0  0  0  0  0  0  0  0  0  0
   16.5511   -2.5963    0.0000 C   0  0  0  0  0  0  0  0  0  0  0  0
   16.5511   -1.7713    0.0000 N   0  3  0  0  0  0  0  0  0  0  0  0
   18.6734   -5.5098    0.0000 C   0  0  1  0  0  0  0  0  0  0  0  0
   18.6515   -6.3345    0.0000 C   0  0  0  0  0  0  0  0  0  0  0  0
   17.9260   -6.7277    0.0000 N   0  0  0  0  0  0  0  0  0  0  0  0
   19.3545   -6.7659    0.0000 O   0  0  0  0  0  0  0  0  0  0  0  0
   19.3950   -5.1100    0.0000 C   0  0  0  0  0  0  0  0  0  0  0  0
   20.1022   -5.5352    0.0000 C   0  0  0  0  0  0  0  0  0  0  0  0
   17.8894   -7.5534    0.0000 C   0  0  2  0  0  0  0  0  0  0  0  0
   17.1572   -7.9336    0.0000 C   0  0  0  0  0  0  0  0  0  0  0  0
   17.1206   -8.7578    0.0000 N   0  0  0  0  0  0  0  0  0  0  0  0
   16.4619   -7.4897    0.0000 O   0  0  0  0  0  0  0  0  0  0  0  0
   18.5886   -7.9910    0.0000 C   0  0  0  0  0  0  0  0  0  0  0  0
   18.5592   -8.8155    0.0000 C   0  0  0  0  0  0  0  0  0  0  0  0
   16.3941   -9.1517    0.0000 C   0  0  2  0  0  0  0  0  0  0  0  0
   15.6908   -8.7203    0.0000 C   0  0  0  0  0  0  0  0  0  0  0  0
   14.9655   -9.1135    0.0000 N   0  0  0  0  0  0  0  0  0  0  0  0
   15.7129   -7.8956    0.0000 O   0  0  0  0  0  0  0  0  0  0  0  0
   16.3794   -9.9766    0.0000 C   0  0  0  0  0  0  0  0  0  0  0  0
   17.0863  -10.4018    0.0000 C   0  0  0  0  0  0  0  0  0  0  0  0
   17.0716  -11.2265    0.0000 N   0  3  0  0  0  0  0  0  0  0  0  0
   14.2537   -8.6940    0.0000 C   0  0  2  0  0  0  0  0  0  0  0  0
   14.2609   -7.8690    0.0000 C   0  0  0  0  0  0  0  0  0  0  0  0
   13.5504   -7.4501    0.0000 N   0  0  0  0  0  0  0  0  0  0  0  0
   14.9792   -7.4629    0.0000 O   0  0  0  0  0  0  0  0  0  0  0  0
   13.5391   -9.1065    0.0000 C   0  0  0  0  0  0  0  0  0  0  0  0
   13.5391   -9.9315    0.0000 C   0  0  0  0  0  0  0  0  0  0  0  0
   12.8247  -10.3440    0.0000 N   0  3  0  0  0  0  0  0  0  0  0  0
   13.5429   -6.6238    0.0000 C   0  0  2  0  0  0  0  0  0  0  0  0
   14.2537   -6.2049    0.0000 C   0  0  0  0  0  0  0  0  0  0  0  0
   14.2462   -5.3800    0.0000 O   0  0  0  0  0  0  0  0  0  0  0  0
   14.9717   -6.6111    0.0000 N   0  0  0  0  0  0  0  0  0  0  0  0
   12.8213   -6.2241    0.0000 C   0  0  1  0  0  0  0  0  0  0  0  0
   12.1141   -6.6493    0.0000 C   0  0  0  0  0  0  0  0  0  0  0  0
   12.8066   -5.3992    0.0000 O   0  0  0  0  0  0  0  0  0  0  0  0
   15.8318   -5.4909    0.0000 C   0  0  0  0  0  0  0  0  0  0  0  0
    6.5258   -5.0564    0.0000 C   0  0  0  0  0  0  0  0  0  0  0  0
    7.2404   -5.4688    0.0000 C   0  0  0  0  0  0  0  0  0  0  0  0
    7.2406   -6.2938    0.0000 C   0  0  0  0  0  0  0  0  0  0  0  0
    7.9551   -6.7060    0.0000 C   0  0  1  0  0  0  0  0  0  0  0  0
    7.9553   -7.5310    0.0000 C   0  0  0  0  0  0  0  0  0  0  0  0
    8.6695   -6.2935    0.0000 C   0  0  0  0  0  0  0  0  0  0  0  0
    8.6698   -7.9434    0.0000 C   0  0  0  0  0  0  0  0  0  0  0  0
   20.0875   -6.3600    0.0000 C   0  0  0  0  0  0  0  0  0  0  0  0
   20.8238   -5.1354    0.0000 C   0  0  0  0  0  0  0  0  0  0  0  0
   17.8306   -9.2023    0.0000 C   0  0  0  0  0  0  0  0  0  0  0  0
   19.2586   -9.2532    0.0000 C   0  0  0  0  0  0  0  0  0  0  0  0
  1  2  1  0  0  0  0
  2  3  1  0  0  0  0
  2  4  2  0  0  0  0
  5  3  1  1  0  0  0
  5  6  1  0  0  0  0
  6  7  1  0  0  0  0
  6  8  2  0  0  0  0
  5  9  1  0  0  0  0
  9 10  1  0  0  0  0
 10 11  1  0  0  0  0
 12  7  1  6  0  0  0
 12 13  1  0  0  0  0
 13 14  1  0  0  0  0
 13 15  2  0  0  0  0
 12 16  1  0  0  0  0
 16 17  1  0  0  0  0
 16 18  1  6  0  0  0
 19 14  1  1  0  0  0
 19 20  1  0  0  0  0
 20 21  1  0  0  0  0
 20 22  2  0  0  0  0
 19 23  1  0  0  0  0
 23 24  1  0  0  0  0
 24 25  1  0  0  0  0
 26 21  1  6  0  0  0
 26 27  1  0  0  0  0
 27 28  1  0  0  0  0
 27 29  2  0  0  0  0
 26 30  1  0  0  0  0
 31 28  1  1  0  0  0
 31 32  1  0  0  0  0
 32 33  1  0  0  0  0
 32 34  2  0  0  0  0
 31 35  1  0  0  0  0
 35 36  1  0  0  0  0
 36 37  1  0  0  0  0
 38 33  1  6  0  0  0
 38 39  1  0  0  0  0
 39 40  1  0  0  0  0
 39 41  2  0  0  0  0
 38 42  1  0  0  0  0
 42 43  1  0  0  0  0
 44 40  1  1  0  0  0
 44 45  1  0  0  0  0
 45 46  1  0  0  0  0
 45 47  2  0  0  0  0
 44 48  1  0  0  0  0
 48 49  1  0  0  0  0
 50 46  1  1  0  0  0
 50 51  1  0  0  0  0
 51 52  1  0  0  0  0
 51 53  2  0  0  0  0
 50 54  1  0  0  0  0
 54 55  1  0  0  0  0
 55 56  1  0  0  0  0
 57 52  1  1  0  0  0
 57 58  1  0  0  0  0
 58 59  1  0  0  0  0
 58 60  2  0  0  0  0
 57 61  1  0  0  0  0
 61 62  1  0  0  0  0
 62 63  1  0  0  0  0
 64 59  1  1  0  0  0
 64 65  1  0  0  0  0
 65 66  2  0  0  0  0
 65 67  1  0  0  0  0
 64 68  1  0  0  0  0
 68 69  1  0  0  0  0
 68 70  1  1  0  0  0
 30 71  1  0  0  0  0
 71 67  1  0  0  0  0
  1 72  1  0  0  0  0
 72 73  1  0  0  0  0
 73 74  1  0  0  0  0
 74 75  1  0  0  0  0
 75 76  1  0  0  0  0
 75 77  1  6  0  0  0
 76 78  1  0  0  0  0
 43 79  1  0  0  0  0
 43 80  1  0  0  0  0
 49 81  1  0  0  0  0
 49 82  1  0  0  0  0
 83 84  1  0  0  0  0
 84 85  1  0  0  0  0
 84 86  2  0  0  0  0
 84 87  2  0  0  0  0
 88 89  1  0  0  0  0
 89 90  1  0  0  0  0
 89 91  2  0  0  0  0
 89 92  2  0  0  0  0
 93 94  1  0  0  0  0
 94 95  1  0  0  0  0
 94 96  2  0  0  0  0
 94 97  2  0  0  0  0
 98 99  1  0  0  0  0
 99100  1  0  0  0  0
 99101  2  0  0  0  0
 99102  2  0  0  0  0
103104  1  0  0  0  0
104105  1  0  0  0  0
104106  2  0  0  0  0
104107  2  0  0  0  0
108109  1  0  0  0  0
109110  1  0  0  0  0
109111  2  0  0  0  0
112110  1  1  0  0  0
112113  1  0  0  0  0
113114  1  0  0  0  0
113115  2  0  0  0  0
112116  1  0  0  0  0
116117  1  0  0  0  0
117118  1  0  0  0  0
119114  1  6  0  0  0
119120  1  0  0  0  0
120121  1  0  0  0  0
120122  2  0  0  0  0
119123  1  0  0  0  0
123124  1  0  0  0  0
123125  1  6  0  0  0
126121  1  1  0  0  0
126127  1  0  0  0  0
127128  1  0  0  0  0
127129  2  0  0  0  0
126130  1  0  0  0  0
130131  1  0  0  0  0
131132  1  0  0  0  0
133128  1  6  0  0  0
133134  1  0  0  0  0
134135  1  0  0  0  0
134136  2  0  0  0  0
133137  1  0  0  0  0
138135  1  1  0  0  0
138139  1  0  0  0  0
139140  1  0  0  0  0
139141  2  0  0  0  0
138142  1  0  0  0  0
142143  1  0  0  0  0
143144  1  0  0  0  0
145140  1  6  0  0  0
145146  1  0  0  0  0
146147  1  0  0  0  0
146148  2  0  0  0  0
145149  1  0  0  0  0
149150  1  0  0  0  0
151147  1  1  0  0  0
151152  1  0  0  0  0
152153  1  0  0  0  0
152154  2  0  0  0  0
151155  1  0  0  0  0
155156  1  0  0  0  0
157153  1  1  0  0  0
157158  1  0  0  0  0
158159  1  0  0  0  0
158160  2  0  0  0  0
157161  1  0  0  0  0
161162  1  0  0  0  0
162163  1  0  0  0  0
164159  1  1  0  0  0
164165  1  0  0  0  0
165166  1  0  0  0  0
165167  2  0  0  0  0
164168  1  0  0  0  0
168169  1  0  0  0  0
169170  1  0  0  0  0
171166  1  1  0  0  0
171172  1  0  0  0  0
172173  2  0  0  0  0
172174  1  0  0  0  0
171175  1  0  0  0  0
175176  1  0  0  0  0
175177  1  1  0  0  0
137178  1  0  0  0  0
178174  1  0  0  0  0
108179  1  0  0  0  0
179180  1  0  0  0  0
180181  1  0  0  0  0
181182  1  0  0  0  0
182183  1  0  0  0  0
182184  1  6  0  0  0
183185  1  0  0  0  0
150186  1  0  0  0  0
150187  1  0  0  0  0
156188  1  0  0  0  0
156189  1  0  0  0  0
M  CHG  8  11   1  25   1  37   1  56   1  63   1  83  -1  85  -1  88  -1
M  CHG  8  90  -1  93  -1  95  -1  98  -1 100  -1 103  -1 105  -1 118   1
M  CHG  4 132   1 144   1 163   1 170   1
M  END

>  <ACTIVITY>
5.00
$$$$
59675

  Mrv0541 05041708502D          

187182  0  0  1  0            999 V2000
    6.1056  -16.4026    0.0000 C   0  0  0  0  0  0  0  0  0  0  0  0
    6.8213  -15.9950    0.0000 C   0  0  0  0  0  0  0  0  0  0  0  0
    7.5332  -16.4117    0.0000 N   0  0  0  0  0  0  0  0  0  0  0  0
    6.8262  -15.1700    0.0000 O   0  0  0  0  0  0  0  0  0  0  0  0
    8.2525  -16.0049    0.0000 C   0  0  2  0  0  0  0  0  0  0  0  0
    8.9633  -16.4238    0.0000 C   0  0  0  0  0  0  0  0  0  0  0  0
    9.6815  -16.0177    0.0000 N   0  0  0  0  0  0  0  0  0  0  0  0
    8.9560  -17.2487    0.0000 O   0  0  0  0  0  0  0  0  0  0  0  0
    8.2525  -15.1799    0.0000 C   0  0  0  0  0  0  0  0  0  0  0  0
    7.5381  -14.7674    0.0000 C   0  0  0  0  0  0  0  0  0  0  0  0
    7.5381  -13.9424    0.0000 N   0  3  0  0  0  0  0  0  0  0  0  0
   10.4008  -16.4245    0.0000 C   0  0  2  0  0  0  0  0  0  0  0  0
   11.1116  -16.0056    0.0000 C   0  0  0  0  0  0  0  0  0  0  0  0
   11.8298  -16.4117    0.0000 N   0  0  0  0  0  0  0  0  0  0  0  0
   11.1043  -15.1806    0.0000 O   0  0  0  0  0  0  0  0  0  0  0  0
   10.4008  -17.2495    0.0000 C   0  0  1  0  0  0  0  0  0  0  0  0
    9.6864  -17.6620    0.0000 C   0  0  0  0  0  0  0  0  0  0  0  0
   11.1152  -17.6620    0.0000 O   0  0  0  0  0  0  0  0  0  0  0  0
   12.5491  -16.0049    0.0000 C   0  0  2  0  0  0  0  0  0  0  0  0
   13.2597  -16.4238    0.0000 C   0  0  0  0  0  0  0  0  0  0  0  0
   13.9779  -16.0177    0.0000 N   0  0  0  0  0  0  0  0  0  0  0  0
   13.2525  -17.2487    0.0000 O   0  0  0  0  0  0  0  0  0  0  0  0
   12.5491  -15.1799    0.0000 C   0  0  0  0  0  0  0  0  0  0  0  0
   11.8345  -14.7674    0.0000 C   0  0  0  0  0  0  0  0  0  0  0  0
   11.8345  -13.9424    0.0000 N   0  3  0  0  0  0  0  0  0  0  0  0
   14.6973  -16.4245    0.0000 C   0  0  2  0  0  0  0  0  0  0  0  0
   15.4080  -16.0056    0.0000 C   0  0  0  0  0  0  0  0  0  0  0  0
   16.1261  -16.4117    0.0000 N   0  0  0  0  0  0  0  0  0  0  0  0
   15.4006  -15.1806    0.0000 O   0  0  0  0  0  0  0  0  0  0  0  0
   14.6973  -17.2495    0.0000 C   0  0  0  0  0  0  0  0  0  0  0  0
   16.8454  -16.0049    0.0000 C   0  0  2  0  0  0  0  0  0  0  0  0
   17.5562  -16.4238    0.0000 C   0  0  0  0  0  0  0  0  0  0  0  0
   17.5489  -17.2487    0.0000 N   0  0  0  0  0  0  0  0  0  0  0  0
   18.2744  -16.0177    0.0000 O   0  0  0  0  0  0  0  0  0  0  0  0
   16.8454  -15.1799    0.0000 C   0  0  0  0  0  0  0  0  0  0  0  0
   16.1310  -14.7674    0.0000 C   0  0  0  0  0  0  0  0  0  0  0  0
   16.1310  -13.9424    0.0000 N   0  3  0  0  0  0  0  0  0  0  0  0
   18.2533  -17.6809    0.0000 C   0  0  1  0  0  0  0  0  0  0  0  0
   18.2313  -18.5056    0.0000 C   0  0  0  0  0  0  0  0  0  0  0  0
   17.5059  -18.8988    0.0000 N   0  0  0  0  0  0  0  0  0  0  0  0
   18.9344  -18.9370    0.0000 O   0  0  0  0  0  0  0  0  0  0  0  0
   18.9749  -17.2811    0.0000 C   0  0  0  0  0  0  0  0  0  0  0  0
   19.6820  -17.7063    0.0000 C   0  0  0  0  0  0  0  0  0  0  0  0
   17.4692  -19.7245    0.0000 C   0  0  2  0  0  0  0  0  0  0  0  0
   16.7371  -20.1048    0.0000 C   0  0  0  0  0  0  0  0  0  0  0  0
   16.7004  -20.9289    0.0000 N   0  0  0  0  0  0  0  0  0  0  0  0
   16.0417  -19.6608    0.0000 O   0  0  0  0  0  0  0  0  0  0  0  0
   18.1685  -20.1621    0.0000 C   0  0  0  0  0  0  0  0  0  0  0  0
   18.1391  -20.9866    0.0000 C   0  0  0  0  0  0  0  0  0  0  0  0
   15.9739  -21.3228    0.0000 C   0  0  2  0  0  0  0  0  0  0  0  0
   15.2707  -20.8914    0.0000 C   0  0  0  0  0  0  0  0  0  0  0  0
   14.5454  -21.2846    0.0000 N   0  0  0  0  0  0  0  0  0  0  0  0
   15.2928  -20.0667    0.0000 O   0  0  0  0  0  0  0  0  0  0  0  0
   15.9592  -22.1477    0.0000 C   0  0  0  0  0  0  0  0  0  0  0  0
   16.6662  -22.5729    0.0000 C   0  0  0  0  0  0  0  0  0  0  0  0
   16.6515  -23.3976    0.0000 N   0  3  0  0  0  0  0  0  0  0  0  0
   13.8335  -20.8651    0.0000 C   0  0  2  0  0  0  0  0  0  0  0  0
   13.8408  -20.0401    0.0000 C   0  0  0  0  0  0  0  0  0  0  0  0
   13.1302  -19.6212    0.0000 N   0  0  0  0  0  0  0  0  0  0  0  0
   14.5590  -19.6340    0.0000 O   0  0  0  0  0  0  0  0  0  0  0  0
   13.1190  -21.2776    0.0000 C   0  0  0  0  0  0  0  0  0  0  0  0
   13.1190  -22.1026    0.0000 C   0  0  0  0  0  0  0  0  0  0  0  0
   12.4046  -22.5151    0.0000 N   0  3  0  0  0  0  0  0  0  0  0  0
   13.1228  -18.7949    0.0000 C   0  0  2  0  0  0  0  0  0  0  0  0
   13.8336  -18.3760    0.0000 C   0  0  0  0  0  0  0  0  0  0  0  0
   13.8261  -17.5511    0.0000 O   0  0  0  0  0  0  0  0  0  0  0  0
   14.5516  -18.7822    0.0000 N   0  0  0  0  0  0  0  0  0  0  0  0
   12.4011  -18.3952    0.0000 C   0  0  1  0  0  0  0  0  0  0  0  0
   11.6940  -18.8204    0.0000 C   0  0  0  0  0  0  0  0  0  0  0  0
   12.3864  -17.5703    0.0000 O   0  0  0  0  0  0  0  0  0  0  0  0
   15.4117  -17.6620    0.0000 C   0  0  0  0  0  0  0  0  0  0  0  0
    6.1057  -17.2276    0.0000 C   0  0  0  0  0  0  0  0  0  0  0  0
    6.8203  -17.6399    0.0000 C   0  0  0  0  0  0  0  0  0  0  0  0
    6.8205  -18.4649    0.0000 C   0  0  0  0  0  0  0  0  0  0  0  0
    7.5350  -18.8771    0.0000 C   0  0  0  0  0  0  0  0  0  0  0  0
    7.5352  -19.7021    0.0000 C   0  0  0  0  0  0  0  0  0  0  0  0
    8.2494  -18.4646    0.0000 C   0  0  0  0  0  0  0  0  0  0  0  0
   19.6674  -18.5311    0.0000 C   0  0  0  0  0  0  0  0  0  0  0  0
   20.4037  -17.3065    0.0000 C   0  0  0  0  0  0  0  0  0  0  0  0
   17.4104  -21.3735    0.0000 C   0  0  0  0  0  0  0  0  0  0  0  0
   18.8385  -21.4243    0.0000 C   0  0  0  0  0  0  0  0  0  0  0  0
    8.7235  -13.1592    0.0000 O   0  5  0  0  0  0  0  0  0  0  0  0
    9.4392  -12.7417    0.0000 S   0  0  0  0  0  0  0  0  0  0  0  0
   10.1555  -13.1510    0.0000 O   0  5  0  0  0  0  0  0  0  0  0  0
    9.8567  -12.0260    0.0000 O   0  0  0  0  0  0  0  0  0  0  0  0
    9.0218  -12.0360    0.0000 O   0  0  0  0  0  0  0  0  0  0  0  0
   11.7055  -13.1393    0.0000 O   0  5  0  0  0  0  0  0  0  0  0  0
   12.4212  -12.7218    0.0000 S   0  0  0  0  0  0  0  0  0  0  0  0
   13.1375  -13.1311    0.0000 O   0  5  0  0  0  0  0  0  0  0  0  0
   12.8386  -12.0062    0.0000 O   0  0  0  0  0  0  0  0  0  0  0  0
   12.0037  -12.0161    0.0000 O   0  0  0  0  0  0  0  0  0  0  0  0
   15.4727  -13.1393    0.0000 O   0  5  0  0  0  0  0  0  0  0  0  0
   16.1883  -12.7218    0.0000 S   0  0  0  0  0  0  0  0  0  0  0  0
   16.9046  -13.1311    0.0000 O   0  5  0  0  0  0  0  0  0  0  0  0
   16.6058  -12.0062    0.0000 O   0  0  0  0  0  0  0  0  0  0  0  0
   15.7708  -12.0161    0.0000 O   0  0  0  0  0  0  0  0  0  0  0  0
   18.8223  -13.1393    0.0000 O   0  5  0  0  0  0  0  0  0  0  0  0
   19.5380  -12.7218    0.0000 S   0  0  0  0  0  0  0  0  0  0  0  0
   20.2543  -13.1311    0.0000 O   0  5  0  0  0  0  0  0  0  0  0  0
   19.9555  -12.0062    0.0000 O   0  0  0  0  0  0  0  0  0  0  0  0
   19.1205  -12.0161    0.0000 O   0  0  0  0  0  0  0  0  0  0  0  0
    5.6223  -13.1393    0.0000 O   0  5  0  0  0  0  0  0  0  0  0  0
    6.3380  -12.7218    0.0000 S   0  0  0  0  0  0  0  0  0  0  0  0
    7.0543  -13.1311    0.0000 O   0  5  0  0  0  0  0  0  0  0  0  0
    6.7555  -12.0062    0.0000 O   0  0  0  0  0  0  0  0  0  0  0  0
    5.9205  -12.0161    0.0000 O   0  0  0  0  0  0  0  0  0  0  0  0
    6.5257   -4.2314    0.0000 C   0  0  0  0  0  0  0  0  0  0  0  0
    7.2414   -3.8239    0.0000 C   0  0  0  0  0  0  0  0  0  0  0  0
    7.9533   -4.2406    0.0000 N   0  0  0  0  0  0  0  0  0  0  0  0
    7.2463   -2.9989    0.0000 O   0  0  0  0  0  0  0  0  0  0  0  0
    8.6726   -3.8338    0.0000 C   0  0  2  0  0  0  0  0  0  0  0  0
    9.3834   -4.2527    0.0000 C   0  0  0  0  0  0  0  0  0  0  0  0
   10.1016   -3.8466    0.0000 N   0  0  0  0  0  0  0  0  0  0  0  0
    9.3761   -5.0776    0.0000 O   0  0  0  0  0  0  0  0  0  0  0  0
    8.6726   -3.0088    0.0000 C   0  0  0  0  0  0  0  0  0  0  0  0
    7.9582   -2.5963    0.0000 C   0  0  0  0  0  0  0  0  0  0  0  0
    7.9582   -1.7713    0.0000 N   0  3  0  0  0  0  0  0  0  0  0  0
   10.8209   -4.2534    0.0000 C   0  0  2  0  0  0  0  0  0  0  0  0
   11.5317   -3.8345    0.0000 C   0  0  0  0  0  0  0  0  0  0  0  0
   12.2500   -4.2406    0.0000 N   0  0  0  0  0  0  0  0  0  0  0  0
   11.5245   -3.0095    0.0000 O   0  0  0  0  0  0  0  0  0  0  0  0
   10.8209   -5.0784    0.0000 C   0  0  1  0  0  0  0  0  0  0  0  0
   10.1065   -5.4909    0.0000 C   0  0  0  0  0  0  0  0  0  0  0  0
   11.5353   -5.4909    0.0000 O   0  0  0  0  0  0  0  0  0  0  0  0
   12.9693   -3.8338    0.0000 C   0  0  2  0  0  0  0  0  0  0  0  0
   13.6798   -4.2527    0.0000 C   0  0  0  0  0  0  0  0  0  0  0  0
   14.3981   -3.8466    0.0000 N   0  0  0  0  0  0  0  0  0  0  0  0
   13.6726   -5.0776    0.0000 O   0  0  0  0  0  0  0  0  0  0  0  0
   12.9693   -3.0088    0.0000 C   0  0  0  0  0  0  0  0  0  0  0  0
   12.2546   -2.5963    0.0000 C   0  0  0  0  0  0  0  0  0  0  0  0
   12.2546   -1.7713    0.0000 N   0  3  0  0  0  0  0  0  0  0  0  0
   15.1174   -4.2534    0.0000 C   0  0  2  0  0  0  0  0  0  0  0  0
   15.8282   -3.8345    0.0000 C   0  0  0  0  0  0  0  0  0  0  0  0
   16.5462   -4.2406    0.0000 N   0  0  0  0  0  0  0  0  0  0  0  0
   15.8207   -3.0095    0.0000 O   0  0  0  0  0  0  0  0  0  0  0  0
   15.1174   -5.0784    0.0000 C   0  0  0  0  0  0  0  0  0  0  0  0
   17.2655   -3.8338    0.0000 C   0  0  2  0  0  0  0  0  0  0  0  0
   17.9763   -4.2527    0.0000 C   0  0  0  0  0  0  0  0  0  0  0  0
   17.9690   -5.0776    0.0000 N   0  0  0  0  0  0  0  0  0  0  0  0
   18.6945   -3.8465    0.0000 O   0  0  0  0  0  0  0  0  0  0  0  0
   17.2655   -3.0088    0.0000 C   0  0  0  0  0  0  0  0  0  0  0  0
   16.5511   -2.5963    0.0000 C   0  0  0  0  0  0  0  0  0  0  0  0
   16.5511   -1.7713    0.0000 N   0  3  0  0  0  0  0  0  0  0  0  0
   18.6734   -5.5098    0.0000 C   0  0  1  0  0  0  0  0  0  0  0  0
   18.6515   -6.3345    0.0000 C   0  0  0  0  0  0  0  0  0  0  0  0
   17.9260   -6.7277    0.0000 N   0  0  0  0  0  0  0  0  0  0  0  0
   19.3545   -6.7659    0.0000 O   0  0  0  0  0  0  0  0  0  0  0  0
   19.3950   -5.1100    0.0000 C   0  0  0  0  0  0  0  0  0  0  0  0
   20.1022   -5.5352    0.0000 C   0  0  0  0  0  0  0  0  0  0  0  0
   17.8894   -7.5534    0.0000 C   0  0  2  0  0  0  0  0  0  0  0  0
   17.1572   -7.9336    0.0000 C   0  0  0  0  0  0  0  0  0  0  0  0
   17.1206   -8.7578    0.0000 N   0  0  0  0  0  0  0  0  0  0  0  0
   16.4619   -7.4897    0.0000 O   0  0  0  0  0  0  0  0  0  0  0  0
   18.5886   -7.9910    0.0000 C   0  0  0  0  0  0  0  0  0  0  0  0
   18.5592   -8.8155    0.0000 C   0  0  0  0  0  0  0  0  0  0  0  0
   16.3941   -9.1517    0.0000 C   0  0  2  0  0  0  0  0  0  0  0  0
   15.6908   -8.7203    0.0000 C   0  0  0  0  0  0  0  0  0  0  0  0
   14.9655   -9.1135    0.0000 N   0  0  0  0  0  0  0  0  0  0  0  0
   15.7129   -7.8956    0.0000 O   0  0  0  0  0  0  0  0  0  0  0  0
   16.3794   -9.9766    0.0000 C   0  0  0  0  0  0  0  0  0  0  0  0
   17.0863  -10.4018    0.0000 C   0  0  0  0  0  0  0  0  0  0  0  0
   17.0716  -11.2265    0.0000 N   0  3  0  0  0  0  0  0  0  0  0  0
   14.2537   -8.6940    0.0000 C   0  0  2  0  0  0  0  0  0  0  0  0
   14.2609   -7.8690    0.0000 C   0  0  0  0  0  0  0  0  0  0  0  0
   13.5504   -7.4501    0.0000 N   0  0  0  0  0  0  0  0  0  0  0  0
   14.9792   -7.4629    0.0000 O   0  0  0  0  0  0  0  0  0  0  0  0
   13.5391   -9.1065    0.0000 C   0  0  0  0  0  0  0  0  0  0  0  0
   13.5391   -9.9315    0.0000 C   0  0  0  0  0  0  0  0  0  0  0  0
   12.8247  -10.3440    0.0000 N   0  3  0  0  0  0  0  0  0  0  0  0
   13.5429   -6.6238    0.0000 C   0  0  2  0  0  0  0  0  0  0  0  0
   14.2537   -6.2049    0.0000 C   0  0  0  0  0  0  0  0  0  0  0  0
   14.2462   -5.3800    0.0000 O   0  0  0  0  0  0  0  0  0  0  0  0
   14.9717   -6.6111    0.0000 N   0  0  0  0  0  0  0  0  0  0  0  0
   12.8213   -6.2241    0.0000 C   0  0  1  0  0  0  0  0  0  0  0  0
   12.1141   -6.6493    0.0000 C   0  0  0  0  0  0  0  0  0  0  0  0
   12.8066   -5.3992    0.0000 O   0  0  0  0  0  0  0  0  0  0  0  0
   15.8318   -5.4909    0.0000 C   0  0  0  0  0  0  0  0  0  0  0  0
    6.5258   -5.0564    0.0000 C   0  0  0  0  0  0  0  0  0  0  0  0
    7.2404   -5.4688    0.0000 C   0  0  0  0  0  0  0  0  0  0  0  0
    7.2406   -6.2938    0.0000 C   0  0  0  0  0  0  0  0  0  0  0  0
    7.9551   -6.7060    0.0000 C   0  0  0  0  0  0  0  0  0  0  0  0
    7.9553   -7.5310    0.0000 C   0  0  0  0  0  0  0  0  0  0  0  0
    8.6695   -6.2935    0.0000 C   0  0  0  0  0  0  0  0  0  0  0  0
   20.0875   -6.3600    0.0000 C   0  0  0  0  0  0  0  0  0  0  0  0
   20.8238   -5.1354    0.0000 C   0  0  0  0  0  0  0  0  0  0  0  0
   17.8306   -9.2023    0.0000 C   0  0  0  0  0  0  0  0  0  0  0  0
   19.2586   -9.2532    0.0000 C   0  0  0  0  0  0  0  0  0  0  0  0
  1  2  1  0  0  0  0
  2  3  1  0  0  0  0
  2  4  2  0  0  0  0
  5  3  1  1  0  0  0
  5  6  1  0  0  0  0
  6  7  1  0  0  0  0
  6  8  2  0  0  0  0
  5  9  1  0  0  0  0
  9 10  1  0  0  0  0
 10 11  1  0  0  0  0
 12  7  1  6  0  0  0
 12 13  1  0  0  0  0
 13 14  1  0  0  0  0
 13 15  2  0  0  0  0
 12 16  1  0  0  0  0
 16 17  1  0  0  0  0
 16 18  1  6  0  0  0
 19 14  1  1  0  0  0
 19 20  1  0  0  0  0
 20 21  1  0  0  0  0
 20 22  2  0  0  0  0
 19 23  1  0  0  0  0
 23 24  1  0  0  0  0
 24 25  1  0  0  0  0
 26 21  1  6  0  0  0
 26 27  1  0  0  0  0
 27 28  1  0  0  0  0
 27 29  2  0  0  0  0
 26 30  1  0  0  0  0
 31 28  1  1  0  0  0
 31 32  1  0  0  0  0
 32 33  1  0  0  0  0
 32 34  2  0  0  0  0
 31 35  1  0  0  0  0
 35 36  1  0  0  0  0
 36 37  1  0  0  0  0
 38 33  1  6  0  0  0
 38 39  1  0  0  0  0
 39 40  1  0  0  0  0
 39 41  2  0  0  0  0
 38 42  1  0  0  0  0
 42 43  1  0  0  0  0
 44 40  1  1  0  0  0
 44 45  1  0  0  0  0
 45 46  1  0  0  0  0
 45 47  2  0  0  0  0
 44 48  1  0  0  0  0
 48 49  1  0  0  0  0
 50 46  1  1  0  0  0
 50 51  1  0  0  0  0
 51 52  1  0  0  0  0
 51 53  2  0  0  0  0
 50 54  1  0  0  0  0
 54 55  1  0  0  0  0
 55 56  1  0  0  0  0
 57 52  1  1  0  0  0
 57 58  1  0  0  0  0
 58 59  1  0  0  0  0
 58 60  2  0  0  0  0
 57 61  1  0  0  0  0
 61 62  1  0  0  0  0
 62 63  1  0  0  0  0
 64 59  1  1  0  0  0
 64 65  1  0  0  0  0
 65 66  2  0  0  0  0
 65 67  1  0  0  0  0
 64 68  1  0  0  0  0
 68 69  1  0  0  0  0
 68 70  1  1  0  0  0
 30 71  1  0  0  0  0
 71 67  1  0  0  0  0
  1 72  1  0  0  0  0
 72 73  1  0  0  0  0
 73 74  1  0  0  0  0
 74 75  1  0  0  0  0
 75 76  1  0  0  0  0
 75 77  1  0  0  0  0
 43 78  1  0  0  0  0
 43 79  1  0  0  0  0
 49 80  1  0  0  0  0
 49 81  1  0  0  0  0
 82 83  1  0  0  0  0
 83 84  1  0  0  0  0
 83 85  2  0  0  0  0
 83 86  2  0  0  0  0
 87 88  1  0  0  0  0
 88 89  1  0  0  0  0
 88 90  2  0  0  0  0
 88 91  2  0  0  0  0
 92 93  1  0  0  0  0
 93 94  1  0  0  0  0
 93 95  2  0  0  0  0
 93 96  2  0  0  0  0
 97 98  1  0  0  0  0
 98 99  1  0  0  0  0
 98100  2  0  0  0  0
 98101  2  0  0  0  0
102103  1  0  0  0  0
103104  1  0  0  0  0
103105  2  0  0  0  0
103106  2  0  0  0  0
107108  1  0  0  0  0
108109  1  0  0  0  0
108110  2  0  0  0  0
111109  1  1  0  0  0
111112  1  0  0  0  0
112113  1  0  0  0  0
112114  2  0  0  0  0
111115  1  0  0  0  0
115116  1  0  0  0  0
116117  1  0  0  0  0
118113  1  6  0  0  0
118119  1  0  0  0  0
119120  1  0  0  0  0
119121  2  0  0  0  0
118122  1  0  0  0  0
122123  1  0  0  0  0
122124  1  6  0  0  0
125120  1  1  0  0  0
125126  1  0  0  0  0
126127  1  0  0  0  0
126128  2  0  0  0  0
125129  1  0  0  0  0
129130  1  0  0  0  0
130131  1  0  0  0  0
132127  1  6  0  0  0
132133  1  0  0  0  0
133134  1  0  0  0  0
133135  2  0  0  0  0
132136  1  0  0  0  0
137134  1  1  0  0  0
137138  1  0  0  0  0
138139  1  0  0  0  0
138140  2  0  0  0  0
137141  1  0  0  0  0
141142  1  0  0  0  0
142143  1  0  0  0  0
144139  1  6  0  0  0
144145  1  0  0  0  0
145146  1  0  0  0  0
145147  2  0  0  0  0
144148  1  0  0  0  0
148149  1  0  0  0  0
150146  1  1  0  0  0
150151  1  0  0  0  0
151152  1  0  0  0  0
151153  2  0  0  0  0
150154  1  0  0  0  0
154155  1  0  0  0  0
156152  1  1  0  0  0
156157  1  0  0  0  0
157158  1  0  0  0  0
157159  2  0  0  0  0
156160  1  0  0  0  0
160161  1  0  0  0  0
161162  1  0  0  0  0
163158  1  1  0  0  0
163164  1  0  0  0  0
164165  1  0  0  0  0
164166  2  0  0  0  0
163167  1  0  0  0  0
167168  1  0  0  0  0
168169  1  0  0  0  0
170165  1  1  0  0  0
170171  1  0  0  0  0
171172  2  0  0  0  0
171173  1  0  0  0  0
170174  1  0  0  0  0
174175  1  0  0  0  0
174176  1  1  0  0  0
136177  1  0  0  0  0
177173  1  0  0  0  0
107178  1  0  0  0  0
178179  1  0  0  0  0
179180  1  0  0  0  0
180181  1  0  0  0  0
181182  1  0  0  0  0
181183  1  0  0  0  0
149184  1  0  0  0  0
149185  1  0  0  0  0
155186  1  0  0  0  0
155187  1  0  0  0  0
M  CHG  8  11   1  25   1  37   1  56   1  63   1  82  -1  84  -1  87  -1
M  CHG  8  89  -1  92  -1  94  -1  97  -1  99  -1 102  -1 104  -1 117   1
M  CHG  4 131   1 143   1 162   1 169   1
M  END

>  <ACTIVITY>
5.00
$$$$
59663

  Mrv0541 05041708502D          

112107  0  0  1  0            999 V2000
    5.6320  -14.8331    0.0000 C   0  0  0  0  0  0  0  0  0  0  0  0
    6.3477  -14.4256    0.0000 C   0  0  0  0  0  0  0  0  0  0  0  0
    7.0596  -14.8423    0.0000 N   0  0  0  0  0  0  0  0  0  0  0  0
    6.3526  -13.6006    0.0000 O   0  0  0  0  0  0  0  0  0  0  0  0
    7.7789  -14.4355    0.0000 C   0  0  2  0  0  0  0  0  0  0  0  0
    8.4897  -14.8544    0.0000 C   0  0  0  0  0  0  0  0  0  0  0  0
    9.2079  -14.4483    0.0000 N   0  0  0  0  0  0  0  0  0  0  0  0
    8.4824  -15.6793    0.0000 O   0  0  0  0  0  0  0  0  0  0  0  0
    7.7789  -13.6105    0.0000 C   0  0  0  0  0  0  0  0  0  0  0  0
    7.0645  -13.1980    0.0000 C   0  0  0  0  0  0  0  0  0  0  0  0
    7.0645  -12.3730    0.0000 N   0  0  0  0  0  0  0  0  0  0  0  0
    9.9272  -14.8551    0.0000 C   0  0  2  0  0  0  0  0  0  0  0  0
   10.6380  -14.4362    0.0000 C   0  0  0  0  0  0  0  0  0  0  0  0
   11.3562  -14.8423    0.0000 N   0  0  0  0  0  0  0  0  0  0  0  0
   10.6307  -13.6112    0.0000 O   0  0  0  0  0  0  0  0  0  0  0  0
    9.9272  -15.6801    0.0000 C   0  0  1  0  0  0  0  0  0  0  0  0
    9.2128  -16.0926    0.0000 C   0  0  0  0  0  0  0  0  0  0  0  0
   10.6416  -16.0926    0.0000 O   0  0  0  0  0  0  0  0  0  0  0  0
   12.0755  -14.4355    0.0000 C   0  0  2  0  0  0  0  0  0  0  0  0
   12.7861  -14.8544    0.0000 C   0  0  0  0  0  0  0  0  0  0  0  0
   13.5043  -14.4483    0.0000 N   0  0  0  0  0  0  0  0  0  0  0  0
   12.7789  -15.6793    0.0000 O   0  0  0  0  0  0  0  0  0  0  0  0
   12.0755  -13.6105    0.0000 C   0  0  0  0  0  0  0  0  0  0  0  0
   11.3609  -13.1980    0.0000 C   0  0  0  0  0  0  0  0  0  0  0  0
   11.3609  -12.3730    0.0000 N   0  0  0  0  0  0  0  0  0  0  0  0
   14.2237  -14.8551    0.0000 C   0  0  2  0  0  0  0  0  0  0  0  0
   14.9344  -14.4362    0.0000 C   0  0  0  0  0  0  0  0  0  0  0  0
   15.6525  -14.8423    0.0000 N   0  0  0  0  0  0  0  0  0  0  0  0
   14.9270  -13.6112    0.0000 O   0  0  0  0  0  0  0  0  0  0  0  0
   14.2237  -15.6801    0.0000 C   0  0  0  0  0  0  0  0  0  0  0  0
   16.3718  -14.4355    0.0000 C   0  0  2  0  0  0  0  0  0  0  0  0
   17.0826  -14.8544    0.0000 C   0  0  0  0  0  0  0  0  0  0  0  0
   17.0753  -15.6793    0.0000 N   0  0  0  0  0  0  0  0  0  0  0  0
   17.8008  -14.4482    0.0000 O   0  0  0  0  0  0  0  0  0  0  0  0
   16.3718  -13.6105    0.0000 C   0  0  0  0  0  0  0  0  0  0  0  0
   15.6574  -13.1980    0.0000 C   0  0  0  0  0  0  0  0  0  0  0  0
   15.6574  -12.3730    0.0000 N   0  0  0  0  0  0  0  0  0  0  0  0
   17.7797  -16.1115    0.0000 C   0  0  1  0  0  0  0  0  0  0  0  0
   17.7577  -16.9362    0.0000 C   0  0  0  0  0  0  0  0  0  0  0  0
   17.0323  -17.3294    0.0000 N   0  0  0  0  0  0  0  0  0  0  0  0
   18.4608  -17.3676    0.0000 O   0  0  0  0  0  0  0  0  0  0  0  0
   18.5013  -15.7117    0.0000 C   0  0  0  0  0  0  0  0  0  0  0  0
   19.2084  -16.1369    0.0000 C   0  0  0  0  0  0  0  0  0  0  0  0
   16.9956  -18.1551    0.0000 C   0  0  2  0  0  0  0  0  0  0  0  0
   16.2635  -18.5353    0.0000 C   0  0  0  0  0  0  0  0  0  0  0  0
   16.2268  -19.3595    0.0000 N   0  0  0  0  0  0  0  0  0  0  0  0
   15.5681  -18.0914    0.0000 O   0  0  0  0  0  0  0  0  0  0  0  0
   17.6949  -18.5927    0.0000 C   0  0  0  0  0  0  0  0  0  0  0  0
   17.6655  -19.4172    0.0000 C   0  0  0  0  0  0  0  0  0  0  0  0
   15.5003  -19.7534    0.0000 C   0  0  2  0  0  0  0  0  0  0  0  0
   14.7972  -19.3220    0.0000 C   0  0  0  0  0  0  0  0  0  0  0  0
   14.0718  -19.7152    0.0000 N   0  0  0  0  0  0  0  0  0  0  0  0
   14.8192  -18.4973    0.0000 O   0  0  0  0  0  0  0  0  0  0  0  0
   15.4856  -20.5783    0.0000 C   0  0  0  0  0  0  0  0  0  0  0  0
   16.1926  -21.0035    0.0000 C   0  0  0  0  0  0  0  0  0  0  0  0
   16.1779  -21.8282    0.0000 N   0  0  0  0  0  0  0  0  0  0  0  0
   13.3599  -19.2957    0.0000 C   0  0  2  0  0  0  0  0  0  0  0  0
   13.3672  -18.4707    0.0000 C   0  0  0  0  0  0  0  0  0  0  0  0
   12.6566  -18.0518    0.0000 N   0  0  0  0  0  0  0  0  0  0  0  0
   14.0854  -18.0646    0.0000 O   0  0  0  0  0  0  0  0  0  0  0  0
   12.6455  -19.7082    0.0000 C   0  0  0  0  0  0  0  0  0  0  0  0
   12.6455  -20.5332    0.0000 C   0  0  0  0  0  0  0  0  0  0  0  0
   11.9311  -20.9457    0.0000 N   0  0  0  0  0  0  0  0  0  0  0  0
   12.6492  -17.2255    0.0000 C   0  0  2  0  0  0  0  0  0  0  0  0
   13.3600  -16.8066    0.0000 C   0  0  0  0  0  0  0  0  0  0  0  0
   13.3525  -15.9817    0.0000 O   0  0  0  0  0  0  0  0  0  0  0  0
   14.0780  -17.2128    0.0000 N   0  0  0  0  0  0  0  0  0  0  0  0
   11.9275  -16.8258    0.0000 C   0  0  1  0  0  0  0  0  0  0  0  0
   11.2204  -17.2510    0.0000 C   0  0  0  0  0  0  0  0  0  0  0  0
   11.9128  -16.0009    0.0000 O   0  0  0  0  0  0  0  0  0  0  0  0
   14.9381  -16.0926    0.0000 C   0  0  0  0  0  0  0  0  0  0  0  0
    7.7766  -11.9563    0.0000 C   0  0  0  0  0  0  0  0  0  0  0  0
    8.4922  -12.3638    0.0000 S   0  0  0  0  0  0  0  0  0  0  0  0
    9.2043  -11.9470    0.0000 O   0  5  0  0  0  0  0  0  0  0  0  0
    8.0848  -13.0794    0.0000 O   0  0  0  0  0  0  0  0  0  0  0  0
    8.8998  -13.0794    0.0000 O   0  0  0  0  0  0  0  0  0  0  0  0
   12.0730  -11.9563    0.0000 C   0  0  0  0  0  0  0  0  0  0  0  0
   12.7887  -12.3638    0.0000 S   0  0  0  0  0  0  0  0  0  0  0  0
   13.5007  -11.9470    0.0000 O   0  5  0  0  0  0  0  0  0  0  0  0
   12.3811  -13.0794    0.0000 O   0  0  0  0  0  0  0  0  0  0  0  0
   13.1962  -13.0794    0.0000 O   0  0  0  0  0  0  0  0  0  0  0  0
   16.3694  -11.9563    0.0000 C   0  0  0  0  0  0  0  0  0  0  0  0
   17.0851  -12.3638    0.0000 S   0  0  0  0  0  0  0  0  0  0  0  0
   17.7970  -11.9470    0.0000 O   0  5  0  0  0  0  0  0  0  0  0  0
   16.6775  -13.0794    0.0000 O   0  0  0  0  0  0  0  0  0  0  0  0
   17.4925  -13.0794    0.0000 O   0  0  0  0  0  0  0  0  0  0  0  0
   16.8899  -22.2451    0.0000 C   0  0  0  0  0  0  0  0  0  0  0  0
   17.6056  -21.8375    0.0000 S   0  0  0  0  0  0  0  0  0  0  0  0
   18.3175  -22.2543    0.0000 O   0  5  0  0  0  0  0  0  0  0  0  0
   17.1981  -21.1219    0.0000 O   0  0  0  0  0  0  0  0  0  0  0  0
   18.0132  -21.1219    0.0000 O   0  0  0  0  0  0  0  0  0  0  0  0
   11.2189  -20.5288    0.0000 C   0  0  0  0  0  0  0  0  0  0  0  0
   10.5032  -20.9365    0.0000 S   0  0  0  0  0  0  0  0  0  0  0  0
    9.7913  -20.5197    0.0000 O   0  5  0  0  0  0  0  0  0  0  0  0
   10.9108  -21.6521    0.0000 O   0  0  0  0  0  0  0  0  0  0  0  0
   10.0958  -21.6521    0.0000 O   0  0  0  0  0  0  0  0  0  0  0  0
    5.6321  -15.6581    0.0000 C   0  0  0  0  0  0  0  0  0  0  0  0
    6.3467  -16.0705    0.0000 C   0  0  0  0  0  0  0  0  0  0  0  0
    6.3469  -16.8955    0.0000 C   0  0  0  0  0  0  0  0  0  0  0  0
    7.0614  -17.3077    0.0000 C   0  0  1  0  0  0  0  0  0  0  0  0
    7.0616  -18.1327    0.0000 C   0  0  0  0  0  0  0  0  0  0  0  0
    7.7758  -16.8952    0.0000 C   0  0  0  0  0  0  0  0  0  0  0  0
    7.7762  -18.5451    0.0000 C   0  0  0  0  0  0  0  0  0  0  0  0
   19.1938  -16.9617    0.0000 C   0  0  0  0  0  0  0  0  0  0  0  0
   19.9301  -15.7371    0.0000 C   0  0  0  0  0  0  0  0  0  0  0  0
   16.9368  -19.8040    0.0000 C   0  0  0  0  0  0  0  0  0  0  0  0
   18.3649  -19.8549    0.0000 C   0  0  0  0  0  0  0  0  0  0  0  0
    9.8664  -12.5967    0.0000 Na  0  3  0  0  0  0  0  0  0  0  0  0
   14.2200  -12.6364    0.0000 Na  0  3  0  0  0  0  0  0  0  0  0  0
   18.4245  -12.5767    0.0000 Na  0  3  0  0  0  0  0  0  0  0  0  0
    9.8068  -19.2364    0.0000 Na  0  3  0  0  0  0  0  0  0  0  0  0
   18.8122  -21.0952    0.0000 Na  0  3  0  0  0  0  0  0  0  0  0  0
  1  2  1  0  0  0  0
  2  3  1  0  0  0  0
  2  4  2  0  0  0  0
  5  3  1  1  0  0  0
  5  6  1  0  0  0  0
  6  7  1  0  0  0  0
  6  8  2  0  0  0  0
  5  9  1  0  0  0  0
  9 10  1  0  0  0  0
 10 11  1  0  0  0  0
 12  7  1  6  0  0  0
 12 13  1  0  0  0  0
 13 14  1  0  0  0  0
 13 15  2  0  0  0  0
 12 16  1  0  0  0  0
 16 17  1  0  0  0  0
 16 18  1  6  0  0  0
 19 14  1  1  0  0  0
 19 20  1  0  0  0  0
 20 21  1  0  0  0  0
 20 22  2  0  0  0  0
 19 23  1  0  0  0  0
 23 24  1  0  0  0  0
 24 25  1  0  0  0  0
 26 21  1  6  0  0  0
 26 27  1  0  0  0  0
 27 28  1  0  0  0  0
 27 29  2  0  0  0  0
 26 30  1  0  0  0  0
 31 28  1  1  0  0  0
 31 32  1  0  0  0  0
 32 33  1  0  0  0  0
 32 34  2  0  0  0  0
 31 35  1  0  0  0  0
 35 36  1  0  0  0  0
 36 37  1  0  0  0  0
 38 33  1  6  0  0  0
 38 39  1  0  0  0  0
 39 40  1  0  0  0  0
 39 41  2  0  0  0  0
 38 42  1  0  0  0  0
 42 43  1  0  0  0  0
 44 40  1  1  0  0  0
 44 45  1  0  0  0  0
 45 46  1  0  0  0  0
 45 47  2  0  0  0  0
 44 48  1  0  0  0  0
 48 49  1  0  0  0  0
 50 46  1  1  0  0  0
 50 51  1  0  0  0  0
 51 52  1  0  0  0  0
 51 53  2  0  0  0  0
 50 54  1  0  0  0  0
 54 55  1  0  0  0  0
 55 56  1  0  0  0  0
 57 52  1  1  0  0  0
 57 58  1  0  0  0  0
 58 59  1  0  0  0  0
 58 60  2  0  0  0  0
 57 61  1  0  0  0  0
 61 62  1  0  0  0  0
 62 63  1  0  0  0  0
 64 59  1  1  0  0  0
 64 65  1  0  0  0  0
 65 66  2  0  0  0  0
 65 67  1  0  0  0  0
 64 68  1  0  0  0  0
 68 69  1  0  0  0  0
 68 70  1  1  0  0  0
 30 71  1  0  0  0  0
 71 67  1  0  0  0  0
 72 73  1  0  0  0  0
 73 74  1  0  0  0  0
 73 75  2  0  0  0  0
 73 76  2  0  0  0  0
 72 11  1  0  0  0  0
 77 78  1  0  0  0  0
 78 79  1  0  0  0  0
 78 80  2  0  0  0  0
 78 81  2  0  0  0  0
 77 25  1  0  0  0  0
 82 83  1  0  0  0  0
 83 84  1  0  0  0  0
 83 85  2  0  0  0  0
 83 86  2  0  0  0  0
 82 37  1  0  0  0  0
 87 88  1  0  0  0  0
 88 89  1  0  0  0  0
 88 90  2  0  0  0  0
 88 91  2  0  0  0  0
 87 56  1  0  0  0  0
 92 93  1  0  0  0  0
 93 94  1  0  0  0  0
 93 95  2  0  0  0  0
 93 96  2  0  0  0  0
 92 63  1  0  0  0  0
  1 97  1  0  0  0  0
 97 98  1  0  0  0  0
 98 99  1  0  0  0  0
 99100  1  0  0  0  0
100101  1  0  0  0  0
100102  1  6  0  0  0
101103  1  0  0  0  0
 43104  1  0  0  0  0
 43105  1  0  0  0  0
 49106  1  0  0  0  0
 49107  1  0  0  0  0
M  CHG  8  74  -1  79  -1  84  -1  89  -1  94  -1 108   1 109   1 110   1
M  CHG  2 111   1 112   1
M  END

>  <ACTIVITY>
5.00
$$$$
59664

  Mrv0541 05041708502D          

111106  0  0  1  0            999 V2000
    5.8209  -26.3434    0.0000 C   0  0  0  0  0  0  0  0  0  0  0  0
    6.5366  -25.9358    0.0000 C   0  0  0  0  0  0  0  0  0  0  0  0
    7.2485  -26.3525    0.0000 N   0  0  0  0  0  0  0  0  0  0  0  0
    6.5415  -25.1108    0.0000 O   0  0  0  0  0  0  0  0  0  0  0  0
    7.9678  -25.9458    0.0000 C   0  0  2  0  0  0  0  0  0  0  0  0
    8.6786  -26.3646    0.0000 C   0  0  0  0  0  0  0  0  0  0  0  0
    9.3968  -25.9585    0.0000 N   0  0  0  0  0  0  0  0  0  0  0  0
    8.6713  -27.1896    0.0000 O   0  0  0  0  0  0  0  0  0  0  0  0
    7.9678  -25.1208    0.0000 C   0  0  0  0  0  0  0  0  0  0  0  0
    7.2534  -24.7083    0.0000 C   0  0  0  0  0  0  0  0  0  0  0  0
    7.2534  -23.8833    0.0000 N   0  0  0  0  0  0  0  0  0  0  0  0
   10.1161  -26.3653    0.0000 C   0  0  2  0  0  0  0  0  0  0  0  0
   10.8269  -25.9464    0.0000 C   0  0  0  0  0  0  0  0  0  0  0  0
   11.5451  -26.3525    0.0000 N   0  0  0  0  0  0  0  0  0  0  0  0
   10.8196  -25.1214    0.0000 O   0  0  0  0  0  0  0  0  0  0  0  0
   10.1161  -27.1903    0.0000 C   0  0  1  0  0  0  0  0  0  0  0  0
    9.4017  -27.6028    0.0000 C   0  0  0  0  0  0  0  0  0  0  0  0
   10.8305  -27.6028    0.0000 O   0  0  0  0  0  0  0  0  0  0  0  0
   12.2644  -25.9458    0.0000 C   0  0  2  0  0  0  0  0  0  0  0  0
   12.9750  -26.3646    0.0000 C   0  0  0  0  0  0  0  0  0  0  0  0
   13.6932  -25.9585    0.0000 N   0  0  0  0  0  0  0  0  0  0  0  0
   12.9678  -27.1896    0.0000 O   0  0  0  0  0  0  0  0  0  0  0  0
   12.2644  -25.1208    0.0000 C   0  0  0  0  0  0  0  0  0  0  0  0
   11.5498  -24.7083    0.0000 C   0  0  0  0  0  0  0  0  0  0  0  0
   11.5498  -23.8833    0.0000 N   0  0  0  0  0  0  0  0  0  0  0  0
   14.4126  -26.3653    0.0000 C   0  0  2  0  0  0  0  0  0  0  0  0
   15.1233  -25.9464    0.0000 C   0  0  0  0  0  0  0  0  0  0  0  0
   15.8414  -26.3525    0.0000 N   0  0  0  0  0  0  0  0  0  0  0  0
   15.1159  -25.1214    0.0000 O   0  0  0  0  0  0  0  0  0  0  0  0
   14.4126  -27.1903    0.0000 C   0  0  0  0  0  0  0  0  0  0  0  0
   16.5607  -25.9458    0.0000 C   0  0  2  0  0  0  0  0  0  0  0  0
   17.2715  -26.3646    0.0000 C   0  0  0  0  0  0  0  0  0  0  0  0
   17.2642  -27.1896    0.0000 N   0  0  0  0  0  0  0  0  0  0  0  0
   17.9897  -25.9585    0.0000 O   0  0  0  0  0  0  0  0  0  0  0  0
   16.5607  -25.1208    0.0000 C   0  0  0  0  0  0  0  0  0  0  0  0
   15.8463  -24.7083    0.0000 C   0  0  0  0  0  0  0  0  0  0  0  0
   15.8463  -23.8833    0.0000 N   0  0  0  0  0  0  0  0  0  0  0  0
   17.9686  -27.6217    0.0000 C   0  0  1  0  0  0  0  0  0  0  0  0
   17.9466  -28.4464    0.0000 C   0  0  0  0  0  0  0  0  0  0  0  0
   17.2212  -28.8396    0.0000 N   0  0  0  0  0  0  0  0  0  0  0  0
   18.6497  -28.8779    0.0000 O   0  0  0  0  0  0  0  0  0  0  0  0
   18.6902  -27.2220    0.0000 C   0  0  0  0  0  0  0  0  0  0  0  0
   19.3973  -27.6472    0.0000 C   0  0  0  0  0  0  0  0  0  0  0  0
   17.1845  -29.6654    0.0000 C   0  0  2  0  0  0  0  0  0  0  0  0
   16.4524  -30.0456    0.0000 C   0  0  0  0  0  0  0  0  0  0  0  0
   16.4157  -30.8698    0.0000 N   0  0  0  0  0  0  0  0  0  0  0  0
   15.7570  -29.6017    0.0000 O   0  0  0  0  0  0  0  0  0  0  0  0
   17.8838  -30.1029    0.0000 C   0  0  0  0  0  0  0  0  0  0  0  0
   17.8544  -30.9275    0.0000 C   0  0  0  0  0  0  0  0  0  0  0  0
   15.6892  -31.2637    0.0000 C   0  0  2  0  0  0  0  0  0  0  0  0
   14.9860  -30.8322    0.0000 C   0  0  0  0  0  0  0  0  0  0  0  0
   14.2607  -31.2254    0.0000 N   0  0  0  0  0  0  0  0  0  0  0  0
   15.0081  -30.0075    0.0000 O   0  0  0  0  0  0  0  0  0  0  0  0
   15.6745  -32.0885    0.0000 C   0  0  0  0  0  0  0  0  0  0  0  0
   16.3815  -32.5137    0.0000 C   0  0  0  0  0  0  0  0  0  0  0  0
   16.3668  -33.3384    0.0000 N   0  0  0  0  0  0  0  0  0  0  0  0
   13.5488  -30.8059    0.0000 C   0  0  2  0  0  0  0  0  0  0  0  0
   13.5561  -29.9809    0.0000 C   0  0  0  0  0  0  0  0  0  0  0  0
   12.8455  -29.5620    0.0000 N   0  0  0  0  0  0  0  0  0  0  0  0
   14.2743  -29.5749    0.0000 O   0  0  0  0  0  0  0  0  0  0  0  0
   12.8343  -31.2184    0.0000 C   0  0  0  0  0  0  0  0  0  0  0  0
   12.8343  -32.0434    0.0000 C   0  0  0  0  0  0  0  0  0  0  0  0
   12.1199  -32.4559    0.0000 N   0  0  0  0  0  0  0  0  0  0  0  0
   12.8381  -28.7357    0.0000 C   0  0  2  0  0  0  0  0  0  0  0  0
   13.5489  -28.3169    0.0000 C   0  0  0  0  0  0  0  0  0  0  0  0
   13.5414  -27.4920    0.0000 O   0  0  0  0  0  0  0  0  0  0  0  0
   14.2669  -28.7230    0.0000 N   0  0  0  0  0  0  0  0  0  0  0  0
   12.1164  -28.3361    0.0000 C   0  0  1  0  0  0  0  0  0  0  0  0
   11.4093  -28.7612    0.0000 C   0  0  0  0  0  0  0  0  0  0  0  0
   12.1017  -27.5111    0.0000 O   0  0  0  0  0  0  0  0  0  0  0  0
   15.1270  -27.6028    0.0000 C   0  0  0  0  0  0  0  0  0  0  0  0
    7.9655  -23.4665    0.0000 C   0  0  0  0  0  0  0  0  0  0  0  0
    8.6811  -23.8741    0.0000 S   0  0  0  0  0  0  0  0  0  0  0  0
    9.3932  -23.4572    0.0000 O   0  5  0  0  0  0  0  0  0  0  0  0
    8.2736  -24.5897    0.0000 O   0  0  0  0  0  0  0  0  0  0  0  0
    9.0887  -24.5897    0.0000 O   0  0  0  0  0  0  0  0  0  0  0  0
   12.2619  -23.4665    0.0000 C   0  0  0  0  0  0  0  0  0  0  0  0
   12.9776  -23.8741    0.0000 S   0  0  0  0  0  0  0  0  0  0  0  0
   13.6896  -23.4572    0.0000 O   0  5  0  0  0  0  0  0  0  0  0  0
   12.5700  -24.5897    0.0000 O   0  0  0  0  0  0  0  0  0  0  0  0
   13.3851  -24.5897    0.0000 O   0  0  0  0  0  0  0  0  0  0  0  0
   16.5583  -23.4665    0.0000 C   0  0  0  0  0  0  0  0  0  0  0  0
   17.2740  -23.8741    0.0000 S   0  0  0  0  0  0  0  0  0  0  0  0
   17.9859  -23.4572    0.0000 O   0  5  0  0  0  0  0  0  0  0  0  0
   16.8664  -24.5897    0.0000 O   0  0  0  0  0  0  0  0  0  0  0  0
   17.6814  -24.5897    0.0000 O   0  0  0  0  0  0  0  0  0  0  0  0
   17.0788  -33.7553    0.0000 C   0  0  0  0  0  0  0  0  0  0  0  0
   17.7945  -33.3477    0.0000 S   0  0  0  0  0  0  0  0  0  0  0  0
   18.5064  -33.7646    0.0000 O   0  5  0  0  0  0  0  0  0  0  0  0
   17.3870  -32.6322    0.0000 O   0  0  0  0  0  0  0  0  0  0  0  0
   18.2021  -32.6322    0.0000 O   0  0  0  0  0  0  0  0  0  0  0  0
   11.4078  -32.0390    0.0000 C   0  0  0  0  0  0  0  0  0  0  0  0
   10.6921  -32.4468    0.0000 S   0  0  0  0  0  0  0  0  0  0  0  0
    9.9802  -32.0300    0.0000 O   0  5  0  0  0  0  0  0  0  0  0  0
   11.0997  -33.1623    0.0000 O   0  0  0  0  0  0  0  0  0  0  0  0
   10.2847  -33.1623    0.0000 O   0  0  0  0  0  0  0  0  0  0  0  0
    5.8210  -27.1684    0.0000 C   0  0  0  0  0  0  0  0  0  0  0  0
    6.5356  -27.5807    0.0000 C   0  0  0  0  0  0  0  0  0  0  0  0
    6.5358  -28.4057    0.0000 C   0  0  0  0  0  0  0  0  0  0  0  0
    7.2503  -28.8179    0.0000 C   0  0  0  0  0  0  0  0  0  0  0  0
    7.2504  -29.6429    0.0000 C   0  0  0  0  0  0  0  0  0  0  0  0
    7.9647  -28.4054    0.0000 C   0  0  0  0  0  0  0  0  0  0  0  0
   19.3827  -28.4719    0.0000 C   0  0  0  0  0  0  0  0  0  0  0  0
   20.1190  -27.2473    0.0000 C   0  0  0  0  0  0  0  0  0  0  0  0
   17.1257  -31.3143    0.0000 C   0  0  0  0  0  0  0  0  0  0  0  0
   18.5538  -31.3651    0.0000 C   0  0  0  0  0  0  0  0  0  0  0  0
   10.0553  -24.1069    0.0000 Na  0  3  0  0  0  0  0  0  0  0  0  0
   14.4089  -24.1466    0.0000 Na  0  3  0  0  0  0  0  0  0  0  0  0
   18.6134  -24.0870    0.0000 Na  0  3  0  0  0  0  0  0  0  0  0  0
    9.9957  -30.7466    0.0000 Na  0  3  0  0  0  0  0  0  0  0  0  0
   19.0011  -32.6054    0.0000 Na  0  3  0  0  0  0  0  0  0  0  0  0
  1  2  1  0  0  0  0
  2  3  1  0  0  0  0
  2  4  2  0  0  0  0
  5  3  1  1  0  0  0
  5  6  1  0  0  0  0
  6  7  1  0  0  0  0
  6  8  2  0  0  0  0
  5  9  1  0  0  0  0
  9 10  1  0  0  0  0
 10 11  1  0  0  0  0
 12  7  1  6  0  0  0
 12 13  1  0  0  0  0
 13 14  1  0  0  0  0
 13 15  2  0  0  0  0
 12 16  1  0  0  0  0
 16 17  1  0  0  0  0
 16 18  1  6  0  0  0
 19 14  1  1  0  0  0
 19 20  1  0  0  0  0
 20 21  1  0  0  0  0
 20 22  2  0  0  0  0
 19 23  1  0  0  0  0
 23 24  1  0  0  0  0
 24 25  1  0  0  0  0
 26 21  1  6  0  0  0
 26 27  1  0  0  0  0
 27 28  1  0  0  0  0
 27 29  2  0  0  0  0
 26 30  1  0  0  0  0
 31 28  1  1  0  0  0
 31 32  1  0  0  0  0
 32 33  1  0  0  0  0
 32 34  2  0  0  0  0
 31 35  1  0  0  0  0
 35 36  1  0  0  0  0
 36 37  1  0  0  0  0
 38 33  1  6  0  0  0
 38 39  1  0  0  0  0
 39 40  1  0  0  0  0
 39 41  2  0  0  0  0
 38 42  1  0  0  0  0
 42 43  1  0  0  0  0
 44 40  1  1  0  0  0
 44 45  1  0  0  0  0
 45 46  1  0  0  0  0
 45 47  2  0  0  0  0
 44 48  1  0  0  0  0
 48 49  1  0  0  0  0
 50 46  1  1  0  0  0
 50 51  1  0  0  0  0
 51 52  1  0  0  0  0
 51 53  2  0  0  0  0
 50 54  1  0  0  0  0
 54 55  1  0  0  0  0
 55 56  1  0  0  0  0
 57 52  1  1  0  0  0
 57 58  1  0  0  0  0
 58 59  1  0  0  0  0
 58 60  2  0  0  0  0
 57 61  1  0  0  0  0
 61 62  1  0  0  0  0
 62 63  1  0  0  0  0
 64 59  1  1  0  0  0
 64 65  1  0  0  0  0
 65 66  2  0  0  0  0
 65 67  1  0  0  0  0
 64 68  1  0  0  0  0
 68 69  1  0  0  0  0
 68 70  1  1  0  0  0
 30 71  1  0  0  0  0
 71 67  1  0  0  0  0
 72 73  1  0  0  0  0
 73 74  1  0  0  0  0
 73 75  2  0  0  0  0
 73 76  2  0  0  0  0
 72 11  1  0  0  0  0
 77 78  1  0  0  0  0
 78 79  1  0  0  0  0
 78 80  2  0  0  0  0
 78 81  2  0  0  0  0
 77 25  1  0  0  0  0
 82 83  1  0  0  0  0
 83 84  1  0  0  0  0
 83 85  2  0  0  0  0
 83 86  2  0  0  0  0
 82 37  1  0  0  0  0
 87 88  1  0  0  0  0
 88 89  1  0  0  0  0
 88 90  2  0  0  0  0
 88 91  2  0  0  0  0
 87 56  1  0  0  0  0
 92 93  1  0  0  0  0
 93 94  1  0  0  0  0
 93 95  2  0  0  0  0
 93 96  2  0  0  0  0
 92 63  1  0  0  0  0
  1 97  1  0  0  0  0
 97 98  1  0  0  0  0
 98 99  1  0  0  0  0
 99100  1  0  0  0  0
100101  1  0  0  0  0
100102  1  0  0  0  0
 43103  1  0  0  0  0
 43104  1  0  0  0  0
 49105  1  0  0  0  0
 49106  1  0  0  0  0
M  CHG  8  74  -1  79  -1  84  -1  89  -1  94  -1 107   1 108   1 109   1
M  CHG  2 110   1 111   1
M  END

>  <ACTIVITY>
5.00
$$$$
59064

  Mrv0541 05041708502D          

 82 82  0  0  1  0            999 V2000
    6.6359   -4.7642    0.0000 C   0  0  0  0  0  0  0  0  0  0  0  0
    7.3516   -4.3566    0.0000 C   0  0  0  0  0  0  0  0  0  0  0  0
    8.0635   -4.7733    0.0000 N   0  0  0  0  0  0  0  0  0  0  0  0
    7.3565   -3.5316    0.0000 O   0  0  0  0  0  0  0  0  0  0  0  0
    8.7828   -4.3665    0.0000 C   0  0  2  0  0  0  0  0  0  0  0  0
    9.4936   -4.7854    0.0000 C   0  0  0  0  0  0  0  0  0  0  0  0
   10.2118   -4.3793    0.0000 N   0  0  0  0  0  0  0  0  0  0  0  0
    9.4863   -5.6103    0.0000 O   0  0  0  0  0  0  0  0  0  0  0  0
    8.7828   -3.5415    0.0000 C   0  0  0  0  0  0  0  0  0  0  0  0
    8.0684   -3.1290    0.0000 C   0  0  0  0  0  0  0  0  0  0  0  0
    8.0684   -2.3040    0.0000 N   0  0  0  0  0  0  0  0  0  0  0  0
   10.9311   -4.7861    0.0000 C   0  0  2  0  0  0  0  0  0  0  0  0
   11.6419   -4.3672    0.0000 C   0  0  0  0  0  0  0  0  0  0  0  0
   12.3602   -4.7733    0.0000 N   0  0  0  0  0  0  0  0  0  0  0  0
   11.6347   -3.5422    0.0000 O   0  0  0  0  0  0  0  0  0  0  0  0
   10.9311   -5.6111    0.0000 C   0  0  1  0  0  0  0  0  0  0  0  0
   10.2167   -6.0236    0.0000 C   0  0  0  0  0  0  0  0  0  0  0  0
   11.6455   -6.0236    0.0000 O   0  0  0  0  0  0  0  0  0  0  0  0
   13.0795   -4.3665    0.0000 C   0  0  2  0  0  0  0  0  0  0  0  0
   13.7900   -4.7854    0.0000 C   0  0  0  0  0  0  0  0  0  0  0  0
   14.5083   -4.3793    0.0000 N   0  0  0  0  0  0  0  0  0  0  0  0
   13.7828   -5.6103    0.0000 O   0  0  0  0  0  0  0  0  0  0  0  0
   13.0795   -3.5415    0.0000 C   0  0  0  0  0  0  0  0  0  0  0  0
   12.3648   -3.1290    0.0000 C   0  0  0  0  0  0  0  0  0  0  0  0
   12.3648   -2.3040    0.0000 N   0  0  0  0  0  0  0  0  0  0  0  0
   15.2276   -4.7861    0.0000 C   0  0  2  0  0  0  0  0  0  0  0  0
   15.9384   -4.3672    0.0000 C   0  0  0  0  0  0  0  0  0  0  0  0
   16.6564   -4.7733    0.0000 N   0  0  0  0  0  0  0  0  0  0  0  0
   15.9309   -3.5422    0.0000 O   0  0  0  0  0  0  0  0  0  0  0  0
   15.2276   -5.6111    0.0000 C   0  0  0  0  0  0  0  0  0  0  0  0
   17.3757   -4.3665    0.0000 C   0  0  2  0  0  0  0  0  0  0  0  0
   18.0865   -4.7854    0.0000 C   0  0  0  0  0  0  0  0  0  0  0  0
   18.0792   -5.6103    0.0000 N   0  0  0  0  0  0  0  0  0  0  0  0
   18.8047   -4.3793    0.0000 O   0  0  0  0  0  0  0  0  0  0  0  0
   17.3757   -3.5415    0.0000 C   0  0  0  0  0  0  0  0  0  0  0  0
   16.6613   -3.1290    0.0000 C   0  0  0  0  0  0  0  0  0  0  0  0
   16.6613   -2.3040    0.0000 N   0  0  0  0  0  0  0  0  0  0  0  0
   18.7836   -6.0425    0.0000 C   0  0  1  0  0  0  0  0  0  0  0  0
   18.7617   -6.8672    0.0000 C   0  0  0  0  0  0  0  0  0  0  0  0
   18.0362   -7.2604    0.0000 N   0  0  0  0  0  0  0  0  0  0  0  0
   19.4647   -7.2986    0.0000 O   0  0  0  0  0  0  0  0  0  0  0  0
   19.5052   -5.6428    0.0000 C   0  0  0  0  0  0  0  0  0  0  0  0
   20.2124   -6.0679    0.0000 C   0  0  0  0  0  0  0  0  0  0  0  0
   17.9996   -8.0861    0.0000 C   0  0  2  0  0  0  0  0  0  0  0  0
   17.2674   -8.4664    0.0000 C   0  0  0  0  0  0  0  0  0  0  0  0
   17.2308   -9.2906    0.0000 N   0  0  0  0  0  0  0  0  0  0  0  0
   16.5721   -8.0224    0.0000 O   0  0  0  0  0  0  0  0  0  0  0  0
   18.6988   -8.5237    0.0000 C   0  0  0  0  0  0  0  0  0  0  0  0
   18.6694   -9.3482    0.0000 C   0  0  0  0  0  0  0  0  0  0  0  0
   16.5043   -9.6844    0.0000 C   0  0  2  0  0  0  0  0  0  0  0  0
   15.8010   -9.2530    0.0000 C   0  0  0  0  0  0  0  0  0  0  0  0
   15.0757   -9.6462    0.0000 N   0  0  0  0  0  0  0  0  0  0  0  0
   15.8231   -8.4283    0.0000 O   0  0  0  0  0  0  0  0  0  0  0  0
   16.4896  -10.5093    0.0000 C   0  0  0  0  0  0  0  0  0  0  0  0
   17.1965  -10.9345    0.0000 C   0  0  0  0  0  0  0  0  0  0  0  0
   17.1818  -11.7592    0.0000 N   0  0  0  0  0  0  0  0  0  0  0  0
   14.3639   -9.2267    0.0000 C   0  0  2  0  0  0  0  0  0  0  0  0
   14.3711   -8.4017    0.0000 C   0  0  0  0  0  0  0  0  0  0  0  0
   13.6606   -7.9828    0.0000 N   0  0  0  0  0  0  0  0  0  0  0  0
   15.0894   -7.9956    0.0000 O   0  0  0  0  0  0  0  0  0  0  0  0
   13.6493   -9.6392    0.0000 C   0  0  0  0  0  0  0  0  0  0  0  0
   13.6493  -10.4642    0.0000 C   0  0  0  0  0  0  0  0  0  0  0  0
   12.9349  -10.8767    0.0000 N   0  0  0  0  0  0  0  0  0  0  0  0
   13.6531   -7.1565    0.0000 C   0  0  2  0  0  0  0  0  0  0  0  0
   14.3639   -6.7376    0.0000 C   0  0  0  0  0  0  0  0  0  0  0  0
   14.3564   -5.9127    0.0000 O   0  0  0  0  0  0  0  0  0  0  0  0
   15.0819   -7.1438    0.0000 N   0  0  0  0  0  0  0  0  0  0  0  0
   12.9315   -6.7568    0.0000 C   0  0  1  0  0  0  0  0  0  0  0  0
   12.2243   -7.1820    0.0000 C   0  0  0  0  0  0  0  0  0  0  0  0
   12.9168   -5.9319    0.0000 O   0  0  0  0  0  0  0  0  0  0  0  0
   15.9420   -6.0236    0.0000 C   0  0  0  0  0  0  0  0  0  0  0  0
    6.6360   -5.5892    0.0000 C   0  0  0  0  0  0  0  0  0  0  0  0
    7.3506   -6.0015    0.0000 C   0  0  0  0  0  0  0  0  0  0  0  0
    7.3508   -6.8265    0.0000 C   0  0  0  0  0  0  0  0  0  0  0  0
    8.0653   -7.2387    0.0000 C   0  0  1  0  0  0  0  0  0  0  0  0
    8.0655   -8.0637    0.0000 C   0  0  0  0  0  0  0  0  0  0  0  0
    8.7797   -6.8262    0.0000 C   0  0  0  0  0  0  0  0  0  0  0  0
    8.7801   -8.4762    0.0000 C   0  0  0  0  0  0  0  0  0  0  0  0
   20.1977   -6.8927    0.0000 C   0  0  0  0  0  0  0  0  0  0  0  0
   20.9340   -5.6681    0.0000 C   0  0  0  0  0  0  0  0  0  0  0  0
   17.9408   -9.7351    0.0000 C   0  0  0  0  0  0  0  0  0  0  0  0
   19.3688   -9.7859    0.0000 C   0  0  0  0  0  0  0  0  0  0  0  0
  1  2  1  0  0  0  0
  2  3  1  0  0  0  0
  2  4  2  0  0  0  0
  5  3  1  1  0  0  0
  5  6  1  0  0  0  0
  6  7  1  0  0  0  0
  6  8  2  0  0  0  0
  5  9  1  0  0  0  0
  9 10  1  0  0  0  0
 10 11  1  0  0  0  0
 12  7  1  6  0  0  0
 12 13  1  0  0  0  0
 13 14  1  0  0  0  0
 13 15  2  0  0  0  0
 12 16  1  0  0  0  0
 16 17  1  0  0  0  0
 16 18  1  6  0  0  0
 19 14  1  1  0  0  0
 19 20  1  0  0  0  0
 20 21  1  0  0  0  0
 20 22  2  0  0  0  0
 19 23  1  0  0  0  0
 23 24  1  0  0  0  0
 24 25  1  0  0  0  0
 26 21  1  6  0  0  0
 26 27  1  0  0  0  0
 27 28  1  0  0  0  0
 27 29  2  0  0  0  0
 26 30  1  0  0  0  0
 31 28  1  1  0  0  0
 31 32  1  0  0  0  0
 32 33  1  0  0  0  0
 32 34  2  0  0  0  0
 31 35  1  0  0  0  0
 35 36  1  0  0  0  0
 36 37  1  0  0  0  0
 38 33  1  6  0  0  0
 38 39  1  0  0  0  0
 39 40  1  0  0  0  0
 39 41  2  0  0  0  0
 38 42  1  0  0  0  0
 42 43  1  0  0  0  0
 44 40  1  1  0  0  0
 44 45  1  0  0  0  0
 45 46  1  0  0  0  0
 45 47  2  0  0  0  0
 44 48  1  0  0  0  0
 48 49  1  0  0  0  0
 50 46  1  1  0  0  0
 50 51  1  0  0  0  0
 51 52  1  0  0  0  0
 51 53  2  0  0  0  0
 50 54  1  0  0  0  0
 54 55  1  0  0  0  0
 55 56  1  0  0  0  0
 57 52  1  1  0  0  0
 57 58  1  0  0  0  0
 58 59  1  0  0  0  0
 58 60  2  0  0  0  0
 57 61  1  0  0  0  0
 61 62  1  0  0  0  0
 62 63  1  0  0  0  0
 64 59  1  1  0  0  0
 64 65  1  0  0  0  0
 65 66  2  0  0  0  0
 65 67  1  0  0  0  0
 64 68  1  0  0  0  0
 68 69  1  0  0  0  0
 68 70  1  1  0  0  0
 30 71  1  0  0  0  0
 71 67  1  0  0  0  0
  1 72  1  0  0  0  0
 72 73  1  0  0  0  0
 73 74  1  0  0  0  0
 74 75  1  0  0  0  0
 75 76  1  0  0  0  0
 75 77  1  6  0  0  0
 76 78  1  0  0  0  0
 43 79  1  0  0  0  0
 43 80  1  0  0  0  0
 49 81  1  0  0  0  0
 49 82  1  0  0  0  0
M  END

>  <ACTIVITY>
5.00
$$$$
34650

  Mrv0541 05041708502D          

112107  0  0  1  0            999 V2000
    5.6320  -14.8331    0.0000 C   0  0  0  0  0  0  0  0  0  0  0  0
    6.3477  -14.4256    0.0000 C   0  0  0  0  0  0  0  0  0  0  0  0
    7.0596  -14.8423    0.0000 N   0  0  0  0  0  0  0  0  0  0  0  0
    6.3526  -13.6006    0.0000 O   0  0  0  0  0  0  0  0  0  0  0  0
    7.7789  -14.4355    0.0000 C   0  0  2  0  0  0  0  0  0  0  0  0
    8.4897  -14.8544    0.0000 C   0  0  0  0  0  0  0  0  0  0  0  0
    9.2079  -14.4483    0.0000 N   0  0  0  0  0  0  0  0  0  0  0  0
    8.4824  -15.6793    0.0000 O   0  0  0  0  0  0  0  0  0  0  0  0
    7.7789  -13.6105    0.0000 C   0  0  0  0  0  0  0  0  0  0  0  0
    7.0645  -13.1980    0.0000 C   0  0  0  0  0  0  0  0  0  0  0  0
    7.0645  -12.3730    0.0000 N   0  0  0  0  0  0  0  0  0  0  0  0
    9.9272  -14.8551    0.0000 C   0  0  2  0  0  0  0  0  0  0  0  0
   10.6380  -14.4362    0.0000 C   0  0  0  0  0  0  0  0  0  0  0  0
   11.3562  -14.8423    0.0000 N   0  0  0  0  0  0  0  0  0  0  0  0
   10.6307  -13.6112    0.0000 O   0  0  0  0  0  0  0  0  0  0  0  0
    9.9272  -15.6801    0.0000 C   0  0  1  0  0  0  0  0  0  0  0  0
    9.2128  -16.0926    0.0000 C   0  0  0  0  0  0  0  0  0  0  0  0
   10.6416  -16.0926    0.0000 O   0  0  0  0  0  0  0  0  0  0  0  0
   12.0755  -14.4355    0.0000 C   0  0  2  0  0  0  0  0  0  0  0  0
   12.7861  -14.8544    0.0000 C   0  0  0  0  0  0  0  0  0  0  0  0
   13.5043  -14.4483    0.0000 N   0  0  0  0  0  0  0  0  0  0  0  0
   12.7789  -15.6793    0.0000 O   0  0  0  0  0  0  0  0  0  0  0  0
   12.0755  -13.6105    0.0000 C   0  0  0  0  0  0  0  0  0  0  0  0
   11.3609  -13.1980    0.0000 C   0  0  0  0  0  0  0  0  0  0  0  0
   11.3609  -12.3730    0.0000 N   0  0  0  0  0  0  0  0  0  0  0  0
   14.2237  -14.8551    0.0000 C   0  0  2  0  0  0  0  0  0  0  0  0
   14.9344  -14.4362    0.0000 C   0  0  0  0  0  0  0  0  0  0  0  0
   15.6525  -14.8423    0.0000 N   0  0  0  0  0  0  0  0  0  0  0  0
   14.9270  -13.6112    0.0000 O   0  0  0  0  0  0  0  0  0  0  0  0
   14.2237  -15.6801    0.0000 C   0  0  0  0  0  0  0  0  0  0  0  0
   16.3718  -14.4355    0.0000 C   0  0  2  0  0  0  0  0  0  0  0  0
   17.0826  -14.8544    0.0000 C   0  0  0  0  0  0  0  0  0  0  0  0
   17.0753  -15.6793    0.0000 N   0  0  0  0  0  0  0  0  0  0  0  0
   17.8008  -14.4482    0.0000 O   0  0  0  0  0  0  0  0  0  0  0  0
   16.3718  -13.6105    0.0000 C   0  0  0  0  0  0  0  0  0  0  0  0
   15.6574  -13.1980    0.0000 C   0  0  0  0  0  0  0  0  0  0  0  0
   15.6574  -12.3730    0.0000 N   0  0  0  0  0  0  0  0  0  0  0  0
   17.7797  -16.1115    0.0000 C   0  0  1  0  0  0  0  0  0  0  0  0
   17.7577  -16.9362    0.0000 C   0  0  0  0  0  0  0  0  0  0  0  0
   17.0323  -17.3294    0.0000 N   0  0  0  0  0  0  0  0  0  0  0  0
   18.4608  -17.3676    0.0000 O   0  0  0  0  0  0  0  0  0  0  0  0
   18.5013  -15.7117    0.0000 C   0  0  0  0  0  0  0  0  0  0  0  0
   19.2084  -16.1369    0.0000 C   0  0  0  0  0  0  0  0  0  0  0  0
   16.9956  -18.1551    0.0000 C   0  0  2  0  0  0  0  0  0  0  0  0
   16.2635  -18.5353    0.0000 C   0  0  0  0  0  0  0  0  0  0  0  0
   16.2268  -19.3595    0.0000 N   0  0  0  0  0  0  0  0  0  0  0  0
   15.5681  -18.0914    0.0000 O   0  0  0  0  0  0  0  0  0  0  0  0
   17.6949  -18.5927    0.0000 C   0  0  0  0  0  0  0  0  0  0  0  0
   17.6655  -19.4172    0.0000 C   0  0  0  0  0  0  0  0  0  0  0  0
   15.5003  -19.7534    0.0000 C   0  0  2  0  0  0  0  0  0  0  0  0
   14.7972  -19.3220    0.0000 C   0  0  0  0  0  0  0  0  0  0  0  0
   14.0718  -19.7152    0.0000 N   0  0  0  0  0  0  0  0  0  0  0  0
   14.8192  -18.4973    0.0000 O   0  0  0  0  0  0  0  0  0  0  0  0
   15.4856  -20.5783    0.0000 C   0  0  0  0  0  0  0  0  0  0  0  0
   16.1926  -21.0035    0.0000 C   0  0  0  0  0  0  0  0  0  0  0  0
   16.1779  -21.8282    0.0000 N   0  0  0  0  0  0  0  0  0  0  0  0
   13.3599  -19.2957    0.0000 C   0  0  2  0  0  0  0  0  0  0  0  0
   13.3672  -18.4707    0.0000 C   0  0  0  0  0  0  0  0  0  0  0  0
   12.6566  -18.0518    0.0000 N   0  0  0  0  0  0  0  0  0  0  0  0
   14.0854  -18.0646    0.0000 O   0  0  0  0  0  0  0  0  0  0  0  0
   12.6455  -19.7082    0.0000 C   0  0  0  0  0  0  0  0  0  0  0  0
   12.6455  -20.5332    0.0000 C   0  0  0  0  0  0  0  0  0  0  0  0
   11.9311  -20.9457    0.0000 N   0  0  0  0  0  0  0  0  0  0  0  0
   12.6492  -17.2255    0.0000 C   0  0  2  0  0  0  0  0  0  0  0  0
   13.3600  -16.8066    0.0000 C   0  0  0  0  0  0  0  0  0  0  0  0
   13.3525  -15.9817    0.0000 O   0  0  0  0  0  0  0  0  0  0  0  0
   14.0780  -17.2128    0.0000 N   0  0  0  0  0  0  0  0  0  0  0  0
   11.9275  -16.8258    0.0000 C   0  0  1  0  0  0  0  0  0  0  0  0
   11.2204  -17.2510    0.0000 C   0  0  0  0  0  0  0  0  0  0  0  0
   11.9128  -16.0009    0.0000 O   0  0  0  0  0  0  0  0  0  0  0  0
   14.9381  -16.0926    0.0000 C   0  0  0  0  0  0  0  0  0  0  0  0
    7.7766  -11.9563    0.0000 C   0  0  0  0  0  0  0  0  0  0  0  0
    8.4922  -12.3638    0.0000 S   0  0  0  0  0  0  0  0  0  0  0  0
    9.2043  -11.9470    0.0000 O   0  5  0  0  0  0  0  0  0  0  0  0
    8.0848  -13.0794    0.0000 O   0  0  0  0  0  0  0  0  0  0  0  0
    8.8998  -13.0794    0.0000 O   0  0  0  0  0  0  0  0  0  0  0  0
   12.0730  -11.9563    0.0000 C   0  0  0  0  0  0  0  0  0  0  0  0
   12.7887  -12.3638    0.0000 S   0  0  0  0  0  0  0  0  0  0  0  0
   13.5007  -11.9470    0.0000 O   0  5  0  0  0  0  0  0  0  0  0  0
   12.3811  -13.0794    0.0000 O   0  0  0  0  0  0  0  0  0  0  0  0
   13.1962  -13.0794    0.0000 O   0  0  0  0  0  0  0  0  0  0  0  0
   16.3694  -11.9563    0.0000 C   0  0  0  0  0  0  0  0  0  0  0  0
   17.0851  -12.3638    0.0000 S   0  0  0  0  0  0  0  0  0  0  0  0
   17.7970  -11.9470    0.0000 O   0  5  0  0  0  0  0  0  0  0  0  0
   16.6775  -13.0794    0.0000 O   0  0  0  0  0  0  0  0  0  0  0  0
   17.4925  -13.0794    0.0000 O   0  0  0  0  0  0  0  0  0  0  0  0
   16.8899  -22.2451    0.0000 C   0  0  0  0  0  0  0  0  0  0  0  0
   17.6056  -21.8375    0.0000 S   0  0  0  0  0  0  0  0  0  0  0  0
   18.3175  -22.2543    0.0000 O   0  5  0  0  0  0  0  0  0  0  0  0
   17.1981  -21.1219    0.0000 O   0  0  0  0  0  0  0  0  0  0  0  0
   18.0132  -21.1219    0.0000 O   0  0  0  0  0  0  0  0  0  0  0  0
   11.2189  -20.5288    0.0000 C   0  0  0  0  0  0  0  0  0  0  0  0
   10.5032  -20.9365    0.0000 S   0  0  0  0  0  0  0  0  0  0  0  0
    9.7913  -20.5197    0.0000 O   0  5  0  0  0  0  0  0  0  0  0  0
   10.9108  -21.6521    0.0000 O   0  0  0  0  0  0  0  0  0  0  0  0
   10.0958  -21.6521    0.0000 O   0  0  0  0  0  0  0  0  0  0  0  0
    5.6321  -15.6581    0.0000 C   0  0  0  0  0  0  0  0  0  0  0  0
    6.3467  -16.0705    0.0000 C   0  0  0  0  0  0  0  0  0  0  0  0
    6.3469  -16.8955    0.0000 C   0  0  0  0  0  0  0  0  0  0  0  0
    7.0614  -17.3077    0.0000 C   0  0  1  0  0  0  0  0  0  0  0  0
    7.0616  -18.1327    0.0000 C   0  0  0  0  0  0  0  0  0  0  0  0
    7.7758  -16.8952    0.0000 C   0  0  0  0  0  0  0  0  0  0  0  0
    7.7762  -18.5451    0.0000 R   0  0  0  0  0  0  0  0  0  0  0  0
   19.1938  -16.9617    0.0000 C   0  0  0  0  0  0  0  0  0  0  0  0
   19.9301  -15.7371    0.0000 C   0  0  0  0  0  0  0  0  0  0  0  0
   16.9368  -19.8040    0.0000 C   0  0  0  0  0  0  0  0  0  0  0  0
   18.3649  -19.8549    0.0000 C   0  0  0  0  0  0  0  0  0  0  0  0
    9.8664  -12.5967    0.0000 Na  0  3  0  0  0  0  0  0  0  0  0  0
   14.2200  -12.6364    0.0000 Na  0  3  0  0  0  0  0  0  0  0  0  0
   18.4245  -12.5767    0.0000 Na  0  3  0  0  0  0  0  0  0  0  0  0
    9.8068  -19.2364    0.0000 Na  0  3  0  0  0  0  0  0  0  0  0  0
   18.8122  -21.0952    0.0000 Na  0  3  0  0  0  0  0  0  0  0  0  0
  1  2  1  0  0  0  0
  2  3  1  0  0  0  0
  2  4  2  0  0  0  0
  5  3  1  1  0  0  0
  5  6  1  0  0  0  0
  6  7  1  0  0  0  0
  6  8  2  0  0  0  0
  5  9  1  0  0  0  0
  9 10  1  0  0  0  0
 10 11  1  0  0  0  0
 12  7  1  6  0  0  0
 12 13  1  0  0  0  0
 13 14  1  0  0  0  0
 13 15  2  0  0  0  0
 12 16  1  0  0  0  0
 16 17  1  0  0  0  0
 16 18  1  6  0  0  0
 19 14  1  1  0  0  0
 19 20  1  0  0  0  0
 20 21  1  0  0  0  0
 20 22  2  0  0  0  0
 19 23  1  0  0  0  0
 23 24  1  0  0  0  0
 24 25  1  0  0  0  0
 26 21  1  6  0  0  0
 26 27  1  0  0  0  0
 27 28  1  0  0  0  0
 27 29  2  0  0  0  0
 26 30  1  0  0  0  0
 31 28  1  1  0  0  0
 31 32  1  0  0  0  0
 32 33  1  0  0  0  0
 32 34  2  0  0  0  0
 31 35  1  0  0  0  0
 35 36  1  0  0  0  0
 36 37  1  0  0  0  0
 38 33  1  6  0  0  0
 38 39  1  0  0  0  0
 39 40  1  0  0  0  0
 39 41  2  0  0  0  0
 38 42  1  0  0  0  0
 42 43  1  0  0  0  0
 44 40  1  1  0  0  0
 44 45  1  0  0  0  0
 45 46  1  0  0  0  0
 45 47  2  0  0  0  0
 44 48  1  0  0  0  0
 48 49  1  0  0  0  0
 50 46  1  1  0  0  0
 50 51  1  0  0  0  0
 51 52  1  0  0  0  0
 51 53  2  0  0  0  0
 50 54  1  0  0  0  0
 54 55  1  0  0  0  0
 55 56  1  0  0  0  0
 57 52  1  1  0  0  0
 57 58  1  0  0  0  0
 58 59  1  0  0  0  0
 58 60  2  0  0  0  0
 57 61  1  0  0  0  0
 61 62  1  0  0  0  0
 62 63  1  0  0  0  0
 64 59  1  1  0  0  0
 64 65  1  0  0  0  0
 65 66  2  0  0  0  0
 65 67  1  0  0  0  0
 64 68  1  0  0  0  0
 68 69  1  0  0  0  0
 68 70  1  1  0  0  0
 30 71  1  0  0  0  0
 71 67  1  0  0  0  0
 72 73  1  0  0  0  0
 73 74  1  0  0  0  0
 73 75  2  0  0  0  0
 73 76  2  0  0  0  0
 72 11  1  0  0  0  0
 77 78  1  0  0  0  0
 78 79  1  0  0  0  0
 78 80  2  0  0  0  0
 78 81  2  0  0  0  0
 77 25  1  0  0  0  0
 82 83  1  0  0  0  0
 83 84  1  0  0  0  0
 83 85  2  0  0  0  0
 83 86  2  0  0  0  0
 82 37  1  0  0  0  0
 87 88  1  0  0  0  0
 88 89  1  0  0  0  0
 88 90  2  0  0  0  0
 88 91  2  0  0  0  0
 87 56  1  0  0  0  0
 92 93  1  0  0  0  0
 93 94  1  0  0  0  0
 93 95  2  0  0  0  0
 93 96  2  0  0  0  0
 92 63  1  0  0  0  0
  1 97  1  0  0  0  0
 97 98  1  0  0  0  0
 98 99  1  0  0  0  0
 99100  1  0  0  0  0
100101  1  0  0  0  0
100102  1  6  0  0  0
101103  1  0  0  0  0
 43104  1  0  0  0  0
 43105  1  0  0  0  0
 49106  1  0  0  0  0
 49107  1  0  0  0  0
M  CHG  8  74  -1  79  -1  84  -1  89  -1  94  -1 108   1 109   1 110   1
M  CHG  2 111   1 112   1
M  END

>  <ACTIVITY>
5.00
$$$$
59673

  Mrv0541 05041708502D          

 81 81  0  0  1  0            999 V2000
    6.8248  -16.2744    0.0000 C   0  0  0  0  0  0  0  0  0  0  0  0
    7.5405  -15.8669    0.0000 C   0  0  0  0  0  0  0  0  0  0  0  0
    8.2524  -16.2836    0.0000 N   0  0  0  0  0  0  0  0  0  0  0  0
    7.5454  -15.0419    0.0000 O   0  0  0  0  0  0  0  0  0  0  0  0
    8.9717  -15.8768    0.0000 C   0  0  2  0  0  0  0  0  0  0  0  0
    9.6825  -16.2957    0.0000 C   0  0  0  0  0  0  0  0  0  0  0  0
   10.4007  -15.8896    0.0000 N   0  0  0  0  0  0  0  0  0  0  0  0
    9.6752  -17.1205    0.0000 O   0  0  0  0  0  0  0  0  0  0  0  0
    8.9717  -15.0518    0.0000 C   0  0  0  0  0  0  0  0  0  0  0  0
    8.2573  -14.6393    0.0000 C   0  0  0  0  0  0  0  0  0  0  0  0
    8.2573  -13.8143    0.0000 N   0  0  0  0  0  0  0  0  0  0  0  0
   11.1200  -16.2964    0.0000 C   0  0  2  0  0  0  0  0  0  0  0  0
   11.8308  -15.8775    0.0000 C   0  0  0  0  0  0  0  0  0  0  0  0
   12.5490  -16.2836    0.0000 N   0  0  0  0  0  0  0  0  0  0  0  0
   11.8235  -15.0525    0.0000 O   0  0  0  0  0  0  0  0  0  0  0  0
   11.1200  -17.1214    0.0000 C   0  0  1  0  0  0  0  0  0  0  0  0
   10.4056  -17.5339    0.0000 C   0  0  0  0  0  0  0  0  0  0  0  0
   11.8344  -17.5339    0.0000 O   0  0  0  0  0  0  0  0  0  0  0  0
   13.2683  -15.8768    0.0000 C   0  0  2  0  0  0  0  0  0  0  0  0
   13.9789  -16.2957    0.0000 C   0  0  0  0  0  0  0  0  0  0  0  0
   14.6971  -15.8896    0.0000 N   0  0  0  0  0  0  0  0  0  0  0  0
   13.9717  -17.1205    0.0000 O   0  0  0  0  0  0  0  0  0  0  0  0
   13.2683  -15.0518    0.0000 C   0  0  0  0  0  0  0  0  0  0  0  0
   12.5537  -14.6393    0.0000 C   0  0  0  0  0  0  0  0  0  0  0  0
   12.5537  -13.8143    0.0000 N   0  0  0  0  0  0  0  0  0  0  0  0
   15.4165  -16.2964    0.0000 C   0  0  2  0  0  0  0  0  0  0  0  0
   16.1272  -15.8775    0.0000 C   0  0  0  0  0  0  0  0  0  0  0  0
   16.8453  -16.2836    0.0000 N   0  0  0  0  0  0  0  0  0  0  0  0
   16.1198  -15.0525    0.0000 O   0  0  0  0  0  0  0  0  0  0  0  0
   15.4165  -17.1214    0.0000 C   0  0  0  0  0  0  0  0  0  0  0  0
   17.5646  -15.8768    0.0000 C   0  0  2  0  0  0  0  0  0  0  0  0
   18.2754  -16.2957    0.0000 C   0  0  0  0  0  0  0  0  0  0  0  0
   18.2681  -17.1205    0.0000 N   0  0  0  0  0  0  0  0  0  0  0  0
   18.9936  -15.8895    0.0000 O   0  0  0  0  0  0  0  0  0  0  0  0
   17.5646  -15.0518    0.0000 C   0  0  0  0  0  0  0  0  0  0  0  0
   16.8502  -14.6393    0.0000 C   0  0  0  0  0  0  0  0  0  0  0  0
   16.8502  -13.8143    0.0000 N   0  0  0  0  0  0  0  0  0  0  0  0
   18.9725  -17.5528    0.0000 C   0  0  1  0  0  0  0  0  0  0  0  0
   18.9505  -18.3775    0.0000 C   0  0  0  0  0  0  0  0  0  0  0  0
   18.2251  -18.7707    0.0000 N   0  0  0  0  0  0  0  0  0  0  0  0
   19.6536  -18.8089    0.0000 O   0  0  0  0  0  0  0  0  0  0  0  0
   19.6941  -17.1530    0.0000 C   0  0  0  0  0  0  0  0  0  0  0  0
   20.4012  -17.5782    0.0000 C   0  0  0  0  0  0  0  0  0  0  0  0
   18.1884  -19.5964    0.0000 C   0  0  2  0  0  0  0  0  0  0  0  0
   17.4563  -19.9766    0.0000 C   0  0  0  0  0  0  0  0  0  0  0  0
   17.4196  -20.8008    0.0000 N   0  0  0  0  0  0  0  0  0  0  0  0
   16.7609  -19.5327    0.0000 O   0  0  0  0  0  0  0  0  0  0  0  0
   18.8877  -20.0340    0.0000 C   0  0  0  0  0  0  0  0  0  0  0  0
   18.8583  -20.8585    0.0000 C   0  0  0  0  0  0  0  0  0  0  0  0
   16.6931  -21.1947    0.0000 C   0  0  2  0  0  0  0  0  0  0  0  0
   15.9899  -20.7633    0.0000 C   0  0  0  0  0  0  0  0  0  0  0  0
   15.2646  -21.1565    0.0000 N   0  0  0  0  0  0  0  0  0  0  0  0
   16.0120  -19.9386    0.0000 O   0  0  0  0  0  0  0  0  0  0  0  0
   16.6784  -22.0196    0.0000 C   0  0  0  0  0  0  0  0  0  0  0  0
   17.3854  -22.4448    0.0000 C   0  0  0  0  0  0  0  0  0  0  0  0
   17.3707  -23.2695    0.0000 N   0  0  0  0  0  0  0  0  0  0  0  0
   14.5527  -20.7370    0.0000 C   0  0  2  0  0  0  0  0  0  0  0  0
   14.5600  -19.9120    0.0000 C   0  0  0  0  0  0  0  0  0  0  0  0
   13.8494  -19.4931    0.0000 N   0  0  0  0  0  0  0  0  0  0  0  0
   15.2782  -19.5059    0.0000 O   0  0  0  0  0  0  0  0  0  0  0  0
   13.8382  -21.1495    0.0000 C   0  0  0  0  0  0  0  0  0  0  0  0
   13.8382  -21.9745    0.0000 C   0  0  0  0  0  0  0  0  0  0  0  0
   13.1238  -22.3870    0.0000 N   0  0  0  0  0  0  0  0  0  0  0  0
   13.8420  -18.6668    0.0000 C   0  0  2  0  0  0  0  0  0  0  0  0
   14.5528  -18.2479    0.0000 C   0  0  0  0  0  0  0  0  0  0  0  0
   14.5453  -17.4229    0.0000 O   0  0  0  0  0  0  0  0  0  0  0  0
   15.2708  -18.6541    0.0000 N   0  0  0  0  0  0  0  0  0  0  0  0
   13.1203  -18.2671    0.0000 C   0  0  1  0  0  0  0  0  0  0  0  0
   12.4132  -18.6923    0.0000 C   0  0  0  0  0  0  0  0  0  0  0  0
   13.1056  -17.4422    0.0000 O   0  0  0  0  0  0  0  0  0  0  0  0
   16.1309  -17.5339    0.0000 C   0  0  0  0  0  0  0  0  0  0  0  0
    6.8249  -17.0994    0.0000 C   0  0  0  0  0  0  0  0  0  0  0  0
    7.5395  -17.5118    0.0000 C   0  0  0  0  0  0  0  0  0  0  0  0
    7.5397  -18.3368    0.0000 C   0  0  0  0  0  0  0  0  0  0  0  0
    8.2542  -18.7490    0.0000 C   0  0  0  0  0  0  0  0  0  0  0  0
    8.2544  -19.5740    0.0000 C   0  0  0  0  0  0  0  0  0  0  0  0
    8.9686  -18.3365    0.0000 C   0  0  0  0  0  0  0  0  0  0  0  0
   20.3866  -18.4030    0.0000 C   0  0  0  0  0  0  0  0  0  0  0  0
   21.1229  -17.1784    0.0000 C   0  0  0  0  0  0  0  0  0  0  0  0
   18.1296  -21.2453    0.0000 C   0  0  0  0  0  0  0  0  0  0  0  0
   19.5577  -21.2962    0.0000 C   0  0  0  0  0  0  0  0  0  0  0  0
  1  2  1  0  0  0  0
  2  3  1  0  0  0  0
  2  4  2  0  0  0  0
  5  3  1  1  0  0  0
  5  6  1  0  0  0  0
  6  7  1  0  0  0  0
  6  8  2  0  0  0  0
  5  9  1  0  0  0  0
  9 10  1  0  0  0  0
 10 11  1  0  0  0  0
 12  7  1  6  0  0  0
 12 13  1  0  0  0  0
 13 14  1  0  0  0  0
 13 15  2  0  0  0  0
 12 16  1  0  0  0  0
 16 17  1  0  0  0  0
 16 18  1  6  0  0  0
 19 14  1  1  0  0  0
 19 20  1  0  0  0  0
 20 21  1  0  0  0  0
 20 22  2  0  0  0  0
 19 23  1  0  0  0  0
 23 24  1  0  0  0  0
 24 25  1  0  0  0  0
 26 21  1  6  0  0  0
 26 27  1  0  0  0  0
 27 28  1  0  0  0  0
 27 29  2  0  0  0  0
 26 30  1  0  0  0  0
 31 28  1  1  0  0  0
 31 32  1  0  0  0  0
 32 33  1  0  0  0  0
 32 34  2  0  0  0  0
 31 35  1  0  0  0  0
 35 36  1  0  0  0  0
 36 37  1  0  0  0  0
 38 33  1  6  0  0  0
 38 39  1  0  0  0  0
 39 40  1  0  0  0  0
 39 41  2  0  0  0  0
 38 42  1  0  0  0  0
 42 43  1  0  0  0  0
 44 40  1  1  0  0  0
 44 45  1  0  0  0  0
 45 46  1  0  0  0  0
 45 47  2  0  0  0  0
 44 48  1  0  0  0  0
 48 49  1  0  0  0  0
 50 46  1  1  0  0  0
 50 51  1  0  0  0  0
 51 52  1  0  0  0  0
 51 53  2  0  0  0  0
 50 54  1  0  0  0  0
 54 55  1  0  0  0  0
 55 56  1  0  0  0  0
 57 52  1  1  0  0  0
 57 58  1  0  0  0  0
 58 59  1  0  0  0  0
 58 60  2  0  0  0  0
 57 61  1  0  0  0  0
 61 62  1  0  0  0  0
 62 63  1  0  0  0  0
 64 59  1  1  0  0  0
 64 65  1  0  0  0  0
 65 66  2  0  0  0  0
 65 67  1  0  0  0  0
 64 68  1  0  0  0  0
 68 69  1  0  0  0  0
 68 70  1  1  0  0  0
 30 71  1  0  0  0  0
 71 67  1  0  0  0  0
  1 72  1  0  0  0  0
 72 73  1  0  0  0  0
 73 74  1  0  0  0  0
 74 75  1  0  0  0  0
 75 76  1  0  0  0  0
 75 77  1  0  0  0  0
 43 78  1  0  0  0  0
 43 79  1  0  0  0  0
 49 80  1  0  0  0  0
 49 81  1  0  0  0  0
M  END

>  <ACTIVITY>
5.00
$$$$
59661

  Mrv0541 05041708502D          

107107  0  0  1  0            999 V2000
    5.6320  -14.8331    0.0000 C   0  0  0  0  0  0  0  0  0  0  0  0
    6.3477  -14.4256    0.0000 C   0  0  0  0  0  0  0  0  0  0  0  0
    7.0596  -14.8423    0.0000 N   0  0  0  0  0  0  0  0  0  0  0  0
    6.3526  -13.6006    0.0000 O   0  0  0  0  0  0  0  0  0  0  0  0
    7.7789  -14.4355    0.0000 C   0  0  2  0  0  0  0  0  0  0  0  0
    8.4897  -14.8544    0.0000 C   0  0  0  0  0  0  0  0  0  0  0  0
    9.2079  -14.4483    0.0000 N   0  0  0  0  0  0  0  0  0  0  0  0
    8.4824  -15.6793    0.0000 O   0  0  0  0  0  0  0  0  0  0  0  0
    7.7789  -13.6105    0.0000 C   0  0  0  0  0  0  0  0  0  0  0  0
    7.0645  -13.1980    0.0000 C   0  0  0  0  0  0  0  0  0  0  0  0
    7.0645  -12.3730    0.0000 N   0  0  0  0  0  0  0  0  0  0  0  0
    9.9272  -14.8551    0.0000 C   0  0  2  0  0  0  0  0  0  0  0  0
   10.6380  -14.4362    0.0000 C   0  0  0  0  0  0  0  0  0  0  0  0
   11.3562  -14.8423    0.0000 N   0  0  0  0  0  0  0  0  0  0  0  0
   10.6307  -13.6112    0.0000 O   0  0  0  0  0  0  0  0  0  0  0  0
    9.9272  -15.6801    0.0000 C   0  0  1  0  0  0  0  0  0  0  0  0
    9.2128  -16.0926    0.0000 C   0  0  0  0  0  0  0  0  0  0  0  0
   10.6416  -16.0926    0.0000 O   0  0  0  0  0  0  0  0  0  0  0  0
   12.0755  -14.4355    0.0000 C   0  0  2  0  0  0  0  0  0  0  0  0
   12.7861  -14.8544    0.0000 C   0  0  0  0  0  0  0  0  0  0  0  0
   13.5043  -14.4483    0.0000 N   0  0  0  0  0  0  0  0  0  0  0  0
   12.7789  -15.6793    0.0000 O   0  0  0  0  0  0  0  0  0  0  0  0
   12.0755  -13.6105    0.0000 C   0  0  0  0  0  0  0  0  0  0  0  0
   11.3609  -13.1980    0.0000 C   0  0  0  0  0  0  0  0  0  0  0  0
   11.3609  -12.3730    0.0000 N   0  0  0  0  0  0  0  0  0  0  0  0
   14.2237  -14.8551    0.0000 C   0  0  2  0  0  0  0  0  0  0  0  0
   14.9344  -14.4362    0.0000 C   0  0  0  0  0  0  0  0  0  0  0  0
   15.6525  -14.8423    0.0000 N   0  0  0  0  0  0  0  0  0  0  0  0
   14.9270  -13.6112    0.0000 O   0  0  0  0  0  0  0  0  0  0  0  0
   14.2237  -15.6801    0.0000 C   0  0  0  0  0  0  0  0  0  0  0  0
   16.3718  -14.4355    0.0000 C   0  0  2  0  0  0  0  0  0  0  0  0
   17.0826  -14.8544    0.0000 C   0  0  0  0  0  0  0  0  0  0  0  0
   17.0753  -15.6793    0.0000 N   0  0  0  0  0  0  0  0  0  0  0  0
   17.8008  -14.4482    0.0000 O   0  0  0  0  0  0  0  0  0  0  0  0
   16.3718  -13.6105    0.0000 C   0  0  0  0  0  0  0  0  0  0  0  0
   15.6574  -13.1980    0.0000 C   0  0  0  0  0  0  0  0  0  0  0  0
   15.6574  -12.3730    0.0000 N   0  0  0  0  0  0  0  0  0  0  0  0
   17.7797  -16.1115    0.0000 C   0  0  1  0  0  0  0  0  0  0  0  0
   17.7577  -16.9362    0.0000 C   0  0  0  0  0  0  0  0  0  0  0  0
   17.0323  -17.3294    0.0000 N   0  0  0  0  0  0  0  0  0  0  0  0
   18.4608  -17.3676    0.0000 O   0  0  0  0  0  0  0  0  0  0  0  0
   18.5013  -15.7117    0.0000 C   0  0  0  0  0  0  0  0  0  0  0  0
   19.2084  -16.1369    0.0000 C   0  0  0  0  0  0  0  0  0  0  0  0
   16.9956  -18.1551    0.0000 C   0  0  2  0  0  0  0  0  0  0  0  0
   16.2635  -18.5353    0.0000 C   0  0  0  0  0  0  0  0  0  0  0  0
   16.2268  -19.3595    0.0000 N   0  0  0  0  0  0  0  0  0  0  0  0
   15.5681  -18.0914    0.0000 O   0  0  0  0  0  0  0  0  0  0  0  0
   17.6949  -18.5927    0.0000 C   0  0  0  0  0  0  0  0  0  0  0  0
   17.6655  -19.4172    0.0000 C   0  0  0  0  0  0  0  0  0  0  0  0
   15.5003  -19.7534    0.0000 C   0  0  2  0  0  0  0  0  0  0  0  0
   14.7972  -19.3220    0.0000 C   0  0  0  0  0  0  0  0  0  0  0  0
   14.0718  -19.7152    0.0000 N   0  0  0  0  0  0  0  0  0  0  0  0
   14.8192  -18.4973    0.0000 O   0  0  0  0  0  0  0  0  0  0  0  0
   15.4856  -20.5783    0.0000 C   0  0  0  0  0  0  0  0  0  0  0  0
   16.1926  -21.0035    0.0000 C   0  0  0  0  0  0  0  0  0  0  0  0
   16.1779  -21.8282    0.0000 N   0  0  0  0  0  0  0  0  0  0  0  0
   13.3599  -19.2957    0.0000 C   0  0  2  0  0  0  0  0  0  0  0  0
   13.3672  -18.4707    0.0000 C   0  0  0  0  0  0  0  0  0  0  0  0
   12.6566  -18.0518    0.0000 N   0  0  0  0  0  0  0  0  0  0  0  0
   14.0854  -18.0646    0.0000 O   0  0  0  0  0  0  0  0  0  0  0  0
   12.6455  -19.7082    0.0000 C   0  0  0  0  0  0  0  0  0  0  0  0
   12.6455  -20.5332    0.0000 C   0  0  0  0  0  0  0  0  0  0  0  0
   11.9311  -20.9457    0.0000 N   0  0  0  0  0  0  0  0  0  0  0  0
   12.6492  -17.2255    0.0000 C   0  0  2  0  0  0  0  0  0  0  0  0
   13.3600  -16.8066    0.0000 C   0  0  0  0  0  0  0  0  0  0  0  0
   13.3525  -15.9817    0.0000 O   0  0  0  0  0  0  0  0  0  0  0  0
   14.0780  -17.2128    0.0000 N   0  0  0  0  0  0  0  0  0  0  0  0
   11.9275  -16.8258    0.0000 C   0  0  1  0  0  0  0  0  0  0  0  0
   11.2204  -17.2510    0.0000 C   0  0  0  0  0  0  0  0  0  0  0  0
   11.9128  -16.0009    0.0000 O   0  0  0  0  0  0  0  0  0  0  0  0
   14.9381  -16.0926    0.0000 C   0  0  0  0  0  0  0  0  0  0  0  0
    7.7766  -11.9563    0.0000 C   0  0  0  0  0  0  0  0  0  0  0  0
    8.4922  -12.3638    0.0000 S   0  0  0  0  0  0  0  0  0  0  0  0
    9.2043  -11.9470    0.0000 O   0  5  0  0  0  0  0  0  0  0  0  0
    8.0848  -13.0794    0.0000 O   0  0  0  0  0  0  0  0  0  0  0  0
    8.8998  -13.0794    0.0000 O   0  0  0  0  0  0  0  0  0  0  0  0
   12.0730  -11.9563    0.0000 C   0  0  0  0  0  0  0  0  0  0  0  0
   12.7887  -12.3638    0.0000 S   0  0  0  0  0  0  0  0  0  0  0  0
   13.5007  -11.9470    0.0000 O   0  5  0  0  0  0  0  0  0  0  0  0
   12.3811  -13.0794    0.0000 O   0  0  0  0  0  0  0  0  0  0  0  0
   13.1962  -13.0794    0.0000 O   0  0  0  0  0  0  0  0  0  0  0  0
   16.3694  -11.9563    0.0000 C   0  0  0  0  0  0  0  0  0  0  0  0
   17.0851  -12.3638    0.0000 S   0  0  0  0  0  0  0  0  0  0  0  0
   17.7970  -11.9470    0.0000 O   0  5  0  0  0  0  0  0  0  0  0  0
   16.6775  -13.0794    0.0000 O   0  0  0  0  0  0  0  0  0  0  0  0
   17.4925  -13.0794    0.0000 O   0  0  0  0  0  0  0  0  0  0  0  0
   16.8899  -22.2451    0.0000 C   0  0  0  0  0  0  0  0  0  0  0  0
   17.6056  -21.8375    0.0000 S   0  0  0  0  0  0  0  0  0  0  0  0
   18.3175  -22.2543    0.0000 O   0  5  0  0  0  0  0  0  0  0  0  0
   17.1981  -21.1219    0.0000 O   0  0  0  0  0  0  0  0  0  0  0  0
   18.0132  -21.1219    0.0000 O   0  0  0  0  0  0  0  0  0  0  0  0
   11.2189  -20.5288    0.0000 C   0  0  0  0  0  0  0  0  0  0  0  0
   10.5032  -20.9365    0.0000 S   0  0  0  0  0  0  0  0  0  0  0  0
    9.7913  -20.5197    0.0000 O   0  5  0  0  0  0  0  0  0  0  0  0
   10.9108  -21.6521    0.0000 O   0  0  0  0  0  0  0  0  0  0  0  0
   10.0958  -21.6521    0.0000 O   0  0  0  0  0  0  0  0  0  0  0  0
    5.6321  -15.6581    0.0000 C   0  0  0  0  0  0  0  0  0  0  0  0
    6.3467  -16.0705    0.0000 C   0  0  0  0  0  0  0  0  0  0  0  0
    6.3469  -16.8955    0.0000 C   0  0  0  0  0  0  0  0  0  0  0  0
    7.0614  -17.3077    0.0000 C   0  0  1  0  0  0  0  0  0  0  0  0
    7.0616  -18.1327    0.0000 C   0  0  0  0  0  0  0  0  0  0  0  0
    7.7758  -16.8952    0.0000 C   0  0  0  0  0  0  0  0  0  0  0  0
    7.7762  -18.5451    0.0000 R   0  0  0  0  0  0  0  0  0  0  0  0
   19.1938  -16.9617    0.0000 C   0  0  0  0  0  0  0  0  0  0  0  0
   19.9301  -15.7371    0.0000 C   0  0  0  0  0  0  0  0  0  0  0  0
   16.9368  -19.8040    0.0000 C   0  0  0  0  0  0  0  0  0  0  0  0
   18.3649  -19.8549    0.0000 C   0  0  0  0  0  0  0  0  0  0  0  0
  1  2  1  0  0  0  0
  2  3  1  0  0  0  0
  2  4  2  0  0  0  0
  5  3  1  1  0  0  0
  5  6  1  0  0  0  0
  6  7  1  0  0  0  0
  6  8  2  0  0  0  0
  5  9  1  0  0  0  0
  9 10  1  0  0  0  0
 10 11  1  0  0  0  0
 12  7  1  6  0  0  0
 12 13  1  0  0  0  0
 13 14  1  0  0  0  0
 13 15  2  0  0  0  0
 12 16  1  0  0  0  0
 16 17  1  0  0  0  0
 16 18  1  6  0  0  0
 19 14  1  1  0  0  0
 19 20  1  0  0  0  0
 20 21  1  0  0  0  0
 20 22  2  0  0  0  0
 19 23  1  0  0  0  0
 23 24  1  0  0  0  0
 24 25  1  0  0  0  0
 26 21  1  6  0  0  0
 26 27  1  0  0  0  0
 27 28  1  0  0  0  0
 27 29  2  0  0  0  0
 26 30  1  0  0  0  0
 31 28  1  1  0  0  0
 31 32  1  0  0  0  0
 32 33  1  0  0  0  0
 32 34  2  0  0  0  0
 31 35  1  0  0  0  0
 35 36  1  0  0  0  0
 36 37  1  0  0  0  0
 38 33  1  6  0  0  0
 38 39  1  0  0  0  0
 39 40  1  0  0  0  0
 39 41  2  0  0  0  0
 38 42  1  0  0  0  0
 42 43  1  0  0  0  0
 44 40  1  1  0  0  0
 44 45  1  0  0  0  0
 45 46  1  0  0  0  0
 45 47  2  0  0  0  0
 44 48  1  0  0  0  0
 48 49  1  0  0  0  0
 50 46  1  1  0  0  0
 50 51  1  0  0  0  0
 51 52  1  0  0  0  0
 51 53  2  0  0  0  0
 50 54  1  0  0  0  0
 54 55  1  0  0  0  0
 55 56  1  0  0  0  0
 57 52  1  1  0  0  0
 57 58  1  0  0  0  0
 58 59  1  0  0  0  0
 58 60  2  0  0  0  0
 57 61  1  0  0  0  0
 61 62  1  0  0  0  0
 62 63  1  0  0  0  0
 64 59  1  1  0  0  0
 64 65  1  0  0  0  0
 65 66  2  0  0  0  0
 65 67  1  0  0  0  0
 64 68  1  0  0  0  0
 68 69  1  0  0  0  0
 68 70  1  1  0  0  0
 30 71  1  0  0  0  0
 71 67  1  0  0  0  0
 72 73  1  0  0  0  0
 73 74  1  0  0  0  0
 73 75  2  0  0  0  0
 73 76  2  0  0  0  0
 72 11  1  0  0  0  0
 77 78  1  0  0  0  0
 78 79  1  0  0  0  0
 78 80  2  0  0  0  0
 78 81  2  0  0  0  0
 77 25  1  0  0  0  0
 82 83  1  0  0  0  0
 83 84  1  0  0  0  0
 83 85  2  0  0  0  0
 83 86  2  0  0  0  0
 82 37  1  0  0  0  0
 87 88  1  0  0  0  0
 88 89  1  0  0  0  0
 88 90  2  0  0  0  0
 88 91  2  0  0  0  0
 87 56  1  0  0  0  0
 92 93  1  0  0  0  0
 93 94  1  0  0  0  0
 93 95  2  0  0  0  0
 93 96  2  0  0  0  0
 92 63  1  0  0  0  0
  1 97  1  0  0  0  0
 97 98  1  0  0  0  0
 98 99  1  0  0  0  0
 99100  1  0  0  0  0
100101  1  0  0  0  0
100102  1  6  0  0  0
101103  1  0  0  0  0
 43104  1  0  0  0  0
 43105  1  0  0  0  0
 49106  1  0  0  0  0
 49107  1  0  0  0  0
M  CHG  5  74  -1  79  -1  84  -1  89  -1  94  -1
M  END

>  <ACTIVITY>
5.00
$$$$
59666

  Mrv0541 05041708502D          

107107  0  0  1  0            999 V2000
    5.6320  -14.8331    0.0000 C   0  0  0  0  0  0  0  0  0  0  0  0
    6.3477  -14.4256    0.0000 C   0  0  0  0  0  0  0  0  0  0  0  0
    7.0596  -14.8423    0.0000 N   0  0  0  0  0  0  0  0  0  0  0  0
    6.3526  -13.6006    0.0000 O   0  0  0  0  0  0  0  0  0  0  0  0
    7.7789  -14.4355    0.0000 C   0  0  2  0  0  0  0  0  0  0  0  0
    8.4897  -14.8544    0.0000 C   0  0  0  0  0  0  0  0  0  0  0  0
    9.2079  -14.4483    0.0000 N   0  0  0  0  0  0  0  0  0  0  0  0
    8.4824  -15.6793    0.0000 O   0  0  0  0  0  0  0  0  0  0  0  0
    7.7789  -13.6105    0.0000 C   0  0  0  0  0  0  0  0  0  0  0  0
    7.0645  -13.1980    0.0000 C   0  0  0  0  0  0  0  0  0  0  0  0
    7.0645  -12.3730    0.0000 N   0  0  0  0  0  0  0  0  0  0  0  0
    9.9272  -14.8551    0.0000 C   0  0  2  0  0  0  0  0  0  0  0  0
   10.6380  -14.4362    0.0000 C   0  0  0  0  0  0  0  0  0  0  0  0
   11.3562  -14.8423    0.0000 N   0  0  0  0  0  0  0  0  0  0  0  0
   10.6307  -13.6112    0.0000 O   0  0  0  0  0  0  0  0  0  0  0  0
    9.9272  -15.6801    0.0000 C   0  0  1  0  0  0  0  0  0  0  0  0
    9.2128  -16.0926    0.0000 C   0  0  0  0  0  0  0  0  0  0  0  0
   10.6416  -16.0926    0.0000 O   0  0  0  0  0  0  0  0  0  0  0  0
   12.0755  -14.4355    0.0000 C   0  0  2  0  0  0  0  0  0  0  0  0
   12.7861  -14.8544    0.0000 C   0  0  0  0  0  0  0  0  0  0  0  0
   13.5043  -14.4483    0.0000 N   0  0  0  0  0  0  0  0  0  0  0  0
   12.7789  -15.6793    0.0000 O   0  0  0  0  0  0  0  0  0  0  0  0
   12.0755  -13.6105    0.0000 C   0  0  0  0  0  0  0  0  0  0  0  0
   11.3609  -13.1980    0.0000 C   0  0  0  0  0  0  0  0  0  0  0  0
   11.3609  -12.3730    0.0000 N   0  0  0  0  0  0  0  0  0  0  0  0
   14.2237  -14.8551    0.0000 C   0  0  2  0  0  0  0  0  0  0  0  0
   14.9344  -14.4362    0.0000 C   0  0  0  0  0  0  0  0  0  0  0  0
   15.6525  -14.8423    0.0000 N   0  0  0  0  0  0  0  0  0  0  0  0
   14.9270  -13.6112    0.0000 O   0  0  0  0  0  0  0  0  0  0  0  0
   14.2237  -15.6801    0.0000 C   0  0  0  0  0  0  0  0  0  0  0  0
   16.3718  -14.4355    0.0000 C   0  0  2  0  0  0  0  0  0  0  0  0
   17.0826  -14.8544    0.0000 C   0  0  0  0  0  0  0  0  0  0  0  0
   17.0753  -15.6793    0.0000 N   0  0  0  0  0  0  0  0  0  0  0  0
   17.8008  -14.4482    0.0000 O   0  0  0  0  0  0  0  0  0  0  0  0
   16.3718  -13.6105    0.0000 C   0  0  0  0  0  0  0  0  0  0  0  0
   15.6574  -13.1980    0.0000 C   0  0  0  0  0  0  0  0  0  0  0  0
   15.6574  -12.3730    0.0000 N   0  0  0  0  0  0  0  0  0  0  0  0
   17.7797  -16.1115    0.0000 C   0  0  1  0  0  0  0  0  0  0  0  0
   17.7577  -16.9362    0.0000 C   0  0  0  0  0  0  0  0  0  0  0  0
   17.0323  -17.3294    0.0000 N   0  0  0  0  0  0  0  0  0  0  0  0
   18.4608  -17.3676    0.0000 O   0  0  0  0  0  0  0  0  0  0  0  0
   18.5013  -15.7117    0.0000 C   0  0  0  0  0  0  0  0  0  0  0  0
   19.2084  -16.1369    0.0000 C   0  0  0  0  0  0  0  0  0  0  0  0
   16.9956  -18.1551    0.0000 C   0  0  2  0  0  0  0  0  0  0  0  0
   16.2635  -18.5353    0.0000 C   0  0  0  0  0  0  0  0  0  0  0  0
   16.2268  -19.3595    0.0000 N   0  0  0  0  0  0  0  0  0  0  0  0
   15.5681  -18.0914    0.0000 O   0  0  0  0  0  0  0  0  0  0  0  0
   17.6949  -18.5927    0.0000 C   0  0  0  0  0  0  0  0  0  0  0  0
   17.6655  -19.4172    0.0000 C   0  0  0  0  0  0  0  0  0  0  0  0
   15.5003  -19.7534    0.0000 C   0  0  2  0  0  0  0  0  0  0  0  0
   14.7972  -19.3220    0.0000 C   0  0  0  0  0  0  0  0  0  0  0  0
   14.0718  -19.7152    0.0000 N   0  0  0  0  0  0  0  0  0  0  0  0
   14.8192  -18.4973    0.0000 O   0  0  0  0  0  0  0  0  0  0  0  0
   15.4856  -20.5783    0.0000 C   0  0  0  0  0  0  0  0  0  0  0  0
   16.1926  -21.0035    0.0000 C   0  0  0  0  0  0  0  0  0  0  0  0
   16.1779  -21.8282    0.0000 N   0  0  0  0  0  0  0  0  0  0  0  0
   13.3599  -19.2957    0.0000 C   0  0  2  0  0  0  0  0  0  0  0  0
   13.3672  -18.4707    0.0000 C   0  0  0  0  0  0  0  0  0  0  0  0
   12.6566  -18.0518    0.0000 N   0  0  0  0  0  0  0  0  0  0  0  0
   14.0854  -18.0646    0.0000 O   0  0  0  0  0  0  0  0  0  0  0  0
   12.6455  -19.7082    0.0000 C   0  0  0  0  0  0  0  0  0  0  0  0
   12.6455  -20.5332    0.0000 C   0  0  0  0  0  0  0  0  0  0  0  0
   11.9311  -20.9457    0.0000 N   0  0  0  0  0  0  0  0  0  0  0  0
   12.6492  -17.2255    0.0000 C   0  0  2  0  0  0  0  0  0  0  0  0
   13.3600  -16.8066    0.0000 C   0  0  0  0  0  0  0  0  0  0  0  0
   13.3525  -15.9817    0.0000 O   0  0  0  0  0  0  0  0  0  0  0  0
   14.0780  -17.2128    0.0000 N   0  0  0  0  0  0  0  0  0  0  0  0
   11.9275  -16.8258    0.0000 C   0  0  1  0  0  0  0  0  0  0  0  0
   11.2204  -17.2510    0.0000 C   0  0  0  0  0  0  0  0  0  0  0  0
   11.9128  -16.0009    0.0000 O   0  0  0  0  0  0  0  0  0  0  0  0
   14.9381  -16.0926    0.0000 C   0  0  0  0  0  0  0  0  0  0  0  0
    7.7766  -11.9563    0.0000 C   0  0  0  0  0  0  0  0  0  0  0  0
    8.4922  -12.3638    0.0000 S   0  0  0  0  0  0  0  0  0  0  0  0
    9.2043  -11.9470    0.0000 O   0  5  0  0  0  0  0  0  0  0  0  0
    8.0848  -13.0794    0.0000 O   0  0  0  0  0  0  0  0  0  0  0  0
    8.8998  -13.0794    0.0000 O   0  0  0  0  0  0  0  0  0  0  0  0
   12.0730  -11.9563    0.0000 C   0  0  0  0  0  0  0  0  0  0  0  0
   12.7887  -12.3638    0.0000 S   0  0  0  0  0  0  0  0  0  0  0  0
   13.5007  -11.9470    0.0000 O   0  5  0  0  0  0  0  0  0  0  0  0
   12.3811  -13.0794    0.0000 O   0  0  0  0  0  0  0  0  0  0  0  0
   13.1962  -13.0794    0.0000 O   0  0  0  0  0  0  0  0  0  0  0  0
   16.3694  -11.9563    0.0000 C   0  0  0  0  0  0  0  0  0  0  0  0
   17.0851  -12.3638    0.0000 S   0  0  0  0  0  0  0  0  0  0  0  0
   17.7970  -11.9470    0.0000 O   0  5  0  0  0  0  0  0  0  0  0  0
   16.6775  -13.0794    0.0000 O   0  0  0  0  0  0  0  0  0  0  0  0
   17.4925  -13.0794    0.0000 O   0  0  0  0  0  0  0  0  0  0  0  0
   16.8899  -22.2451    0.0000 C   0  0  0  0  0  0  0  0  0  0  0  0
   17.6056  -21.8375    0.0000 S   0  0  0  0  0  0  0  0  0  0  0  0
   18.3175  -22.2543    0.0000 O   0  5  0  0  0  0  0  0  0  0  0  0
   17.1981  -21.1219    0.0000 O   0  0  0  0  0  0  0  0  0  0  0  0
   18.0132  -21.1219    0.0000 O   0  0  0  0  0  0  0  0  0  0  0  0
   11.2189  -20.5288    0.0000 C   0  0  0  0  0  0  0  0  0  0  0  0
   10.5032  -20.9365    0.0000 S   0  0  0  0  0  0  0  0  0  0  0  0
    9.7913  -20.5197    0.0000 O   0  5  0  0  0  0  0  0  0  0  0  0
   10.9108  -21.6521    0.0000 O   0  0  0  0  0  0  0  0  0  0  0  0
   10.0958  -21.6521    0.0000 O   0  0  0  0  0  0  0  0  0  0  0  0
    5.6321  -15.6581    0.0000 C   0  0  0  0  0  0  0  0  0  0  0  0
    6.3467  -16.0705    0.0000 C   0  0  0  0  0  0  0  0  0  0  0  0
    6.3469  -16.8955    0.0000 C   0  0  0  0  0  0  0  0  0  0  0  0
    7.0614  -17.3077    0.0000 C   0  0  1  0  0  0  0  0  0  0  0  0
    7.0616  -18.1327    0.0000 C   0  0  0  0  0  0  0  0  0  0  0  0
    7.7758  -16.8952    0.0000 C   0  0  0  0  0  0  0  0  0  0  0  0
    7.7762  -18.5451    0.0000 C   0  0  0  0  0  0  0  0  0  0  0  0
   19.1938  -16.9617    0.0000 C   0  0  0  0  0  0  0  0  0  0  0  0
   19.9301  -15.7371    0.0000 C   0  0  0  0  0  0  0  0  0  0  0  0
   16.9368  -19.8040    0.0000 C   0  0  0  0  0  0  0  0  0  0  0  0
   18.3649  -19.8549    0.0000 C   0  0  0  0  0  0  0  0  0  0  0  0
  1  2  1  0  0  0  0
  2  3  1  0  0  0  0
  2  4  2  0  0  0  0
  5  3  1  1  0  0  0
  5  6  1  0  0  0  0
  6  7  1  0  0  0  0
  6  8  2  0  0  0  0
  5  9  1  0  0  0  0
  9 10  1  0  0  0  0
 10 11  1  0  0  0  0
 12  7  1  6  0  0  0
 12 13  1  0  0  0  0
 13 14  1  0  0  0  0
 13 15  2  0  0  0  0
 12 16  1  0  0  0  0
 16 17  1  0  0  0  0
 16 18  1  6  0  0  0
 19 14  1  1  0  0  0
 19 20  1  0  0  0  0
 20 21  1  0  0  0  0
 20 22  2  0  0  0  0
 19 23  1  0  0  0  0
 23 24  1  0  0  0  0
 24 25  1  0  0  0  0
 26 21  1  6  0  0  0
 26 27  1  0  0  0  0
 27 28  1  0  0  0  0
 27 29  2  0  0  0  0
 26 30  1  0  0  0  0
 31 28  1  1  0  0  0
 31 32  1  0  0  0  0
 32 33  1  0  0  0  0
 32 34  2  0  0  0  0
 31 35  1  0  0  0  0
 35 36  1  0  0  0  0
 36 37  1  0  0  0  0
 38 33  1  6  0  0  0
 38 39  1  0  0  0  0
 39 40  1  0  0  0  0
 39 41  2  0  0  0  0
 38 42  1  0  0  0  0
 42 43  1  0  0  0  0
 44 40  1  1  0  0  0
 44 45  1  0  0  0  0
 45 46  1  0  0  0  0
 45 47  2  0  0  0  0
 44 48  1  0  0  0  0
 48 49  1  0  0  0  0
 50 46  1  1  0  0  0
 50 51  1  0  0  0  0
 51 52  1  0  0  0  0
 51 53  2  0  0  0  0
 50 54  1  0  0  0  0
 54 55  1  0  0  0  0
 55 56  1  0  0  0  0
 57 52  1  1  0  0  0
 57 58  1  0  0  0  0
 58 59  1  0  0  0  0
 58 60  2  0  0  0  0
 57 61  1  0  0  0  0
 61 62  1  0  0  0  0
 62 63  1  0  0  0  0
 64 59  1  1  0  0  0
 64 65  1  0  0  0  0
 65 66  2  0  0  0  0
 65 67  1  0  0  0  0
 64 68  1  0  0  0  0
 68 69  1  0  0  0  0
 68 70  1  1  0  0  0
 30 71  1  0  0  0  0
 71 67  1  0  0  0  0
 72 73  1  0  0  0  0
 73 74  1  0  0  0  0
 73 75  2  0  0  0  0
 73 76  2  0  0  0  0
 72 11  1  0  0  0  0
 77 78  1  0  0  0  0
 78 79  1  0  0  0  0
 78 80  2  0  0  0  0
 78 81  2  0  0  0  0
 77 25  1  0  0  0  0
 82 83  1  0  0  0  0
 83 84  1  0  0  0  0
 83 85  2  0  0  0  0
 83 86  2  0  0  0  0
 82 37  1  0  0  0  0
 87 88  1  0  0  0  0
 88 89  1  0  0  0  0
 88 90  2  0  0  0  0
 88 91  2  0  0  0  0
 87 56  1  0  0  0  0
 92 93  1  0  0  0  0
 93 94  1  0  0  0  0
 93 95  2  0  0  0  0
 93 96  2  0  0  0  0
 92 63  1  0  0  0  0
  1 97  1  0  0  0  0
 97 98  1  0  0  0  0
 98 99  1  0  0  0  0
 99100  1  0  0  0  0
100101  1  0  0  0  0
100102  1  6  0  0  0
101103  1  0  0  0  0
 43104  1  0  0  0  0
 43105  1  0  0  0  0
 49106  1  0  0  0  0
 49107  1  0  0  0  0
M  CHG  5  74  -1  79  -1  84  -1  89  -1  94  -1
M  END

>  <ACTIVITY>
5.00
$$$$
59669

  Mrv0541 05041708502D          

107107  0  0  1  0            999 V2000
    5.6320  -14.8331    0.0000 C   0  0  0  0  0  0  0  0  0  0  0  0
    6.3477  -14.4256    0.0000 C   0  0  0  0  0  0  0  0  0  0  0  0
    7.0596  -14.8423    0.0000 N   0  0  0  0  0  0  0  0  0  0  0  0
    6.3526  -13.6006    0.0000 O   0  0  0  0  0  0  0  0  0  0  0  0
    7.7789  -14.4355    0.0000 C   0  0  2  0  0  0  0  0  0  0  0  0
    8.4897  -14.8544    0.0000 C   0  0  0  0  0  0  0  0  0  0  0  0
    9.2079  -14.4483    0.0000 N   0  0  0  0  0  0  0  0  0  0  0  0
    8.4824  -15.6793    0.0000 O   0  0  0  0  0  0  0  0  0  0  0  0
    7.7789  -13.6105    0.0000 C   0  0  0  0  0  0  0  0  0  0  0  0
    7.0645  -13.1980    0.0000 C   0  0  0  0  0  0  0  0  0  0  0  0
    7.0645  -12.3730    0.0000 N   0  0  0  0  0  0  0  0  0  0  0  0
    9.9272  -14.8551    0.0000 C   0  0  2  0  0  0  0  0  0  0  0  0
   10.6380  -14.4362    0.0000 C   0  0  0  0  0  0  0  0  0  0  0  0
   11.3562  -14.8423    0.0000 N   0  0  0  0  0  0  0  0  0  0  0  0
   10.6307  -13.6112    0.0000 O   0  0  0  0  0  0  0  0  0  0  0  0
    9.9272  -15.6801    0.0000 C   0  0  1  0  0  0  0  0  0  0  0  0
    9.2128  -16.0926    0.0000 C   0  0  0  0  0  0  0  0  0  0  0  0
   10.6416  -16.0926    0.0000 O   0  0  0  0  0  0  0  0  0  0  0  0
   12.0755  -14.4355    0.0000 C   0  0  2  0  0  0  0  0  0  0  0  0
   12.7861  -14.8544    0.0000 C   0  0  0  0  0  0  0  0  0  0  0  0
   13.5043  -14.4483    0.0000 N   0  0  0  0  0  0  0  0  0  0  0  0
   12.7789  -15.6793    0.0000 O   0  0  0  0  0  0  0  0  0  0  0  0
   12.0755  -13.6105    0.0000 C   0  0  0  0  0  0  0  0  0  0  0  0
   11.3609  -13.1980    0.0000 C   0  0  0  0  0  0  0  0  0  0  0  0
   11.3609  -12.3730    0.0000 N   0  0  0  0  0  0  0  0  0  0  0  0
   14.2237  -14.8551    0.0000 C   0  0  2  0  0  0  0  0  0  0  0  0
   14.9344  -14.4362    0.0000 C   0  0  0  0  0  0  0  0  0  0  0  0
   15.6525  -14.8423    0.0000 N   0  0  0  0  0  0  0  0  0  0  0  0
   14.9270  -13.6112    0.0000 O   0  0  0  0  0  0  0  0  0  0  0  0
   14.2237  -15.6801    0.0000 C   0  0  0  0  0  0  0  0  0  0  0  0
   16.3718  -14.4355    0.0000 C   0  0  2  0  0  0  0  0  0  0  0  0
   17.0826  -14.8544    0.0000 C   0  0  0  0  0  0  0  0  0  0  0  0
   17.0753  -15.6793    0.0000 N   0  0  0  0  0  0  0  0  0  0  0  0
   17.8008  -14.4482    0.0000 O   0  0  0  0  0  0  0  0  0  0  0  0
   16.3718  -13.6105    0.0000 C   0  0  0  0  0  0  0  0  0  0  0  0
   15.6574  -13.1980    0.0000 C   0  0  0  0  0  0  0  0  0  0  0  0
   15.6574  -12.3730    0.0000 N   0  0  0  0  0  0  0  0  0  0  0  0
   17.7797  -16.1115    0.0000 C   0  0  1  0  0  0  0  0  0  0  0  0
   17.7577  -16.9362    0.0000 C   0  0  0  0  0  0  0  0  0  0  0  0
   17.0323  -17.3294    0.0000 N   0  0  0  0  0  0  0  0  0  0  0  0
   18.4608  -17.3676    0.0000 O   0  0  0  0  0  0  0  0  0  0  0  0
   18.5013  -15.7117    0.0000 C   0  0  0  0  0  0  0  0  0  0  0  0
   19.2084  -16.1369    0.0000 C   0  0  0  0  0  0  0  0  0  0  0  0
   16.9956  -18.1551    0.0000 C   0  0  2  0  0  0  0  0  0  0  0  0
   16.2635  -18.5353    0.0000 C   0  0  0  0  0  0  0  0  0  0  0  0
   16.2268  -19.3595    0.0000 N   0  0  0  0  0  0  0  0  0  0  0  0
   15.5681  -18.0914    0.0000 O   0  0  0  0  0  0  0  0  0  0  0  0
   17.6949  -18.5927    0.0000 C   0  0  0  0  0  0  0  0  0  0  0  0
   17.6655  -19.4172    0.0000 C   0  0  0  0  0  0  0  0  0  0  0  0
   15.5003  -19.7534    0.0000 C   0  0  2  0  0  0  0  0  0  0  0  0
   14.7972  -19.3220    0.0000 C   0  0  0  0  0  0  0  0  0  0  0  0
   14.0718  -19.7152    0.0000 N   0  0  0  0  0  0  0  0  0  0  0  0
   14.8192  -18.4973    0.0000 O   0  0  0  0  0  0  0  0  0  0  0  0
   15.4856  -20.5783    0.0000 C   0  0  0  0  0  0  0  0  0  0  0  0
   16.1926  -21.0035    0.0000 C   0  0  0  0  0  0  0  0  0  0  0  0
   16.1779  -21.8282    0.0000 N   0  0  0  0  0  0  0  0  0  0  0  0
   13.3599  -19.2957    0.0000 C   0  0  2  0  0  0  0  0  0  0  0  0
   13.3672  -18.4707    0.0000 C   0  0  0  0  0  0  0  0  0  0  0  0
   12.6566  -18.0518    0.0000 N   0  0  0  0  0  0  0  0  0  0  0  0
   14.0854  -18.0646    0.0000 O   0  0  0  0  0  0  0  0  0  0  0  0
   12.6455  -19.7082    0.0000 C   0  0  0  0  0  0  0  0  0  0  0  0
   12.6455  -20.5332    0.0000 C   0  0  0  0  0  0  0  0  0  0  0  0
   11.9311  -20.9457    0.0000 N   0  0  0  0  0  0  0  0  0  0  0  0
   12.6492  -17.2255    0.0000 C   0  0  2  0  0  0  0  0  0  0  0  0
   13.3600  -16.8066    0.0000 C   0  0  0  0  0  0  0  0  0  0  0  0
   13.3525  -15.9817    0.0000 O   0  0  0  0  0  0  0  0  0  0  0  0
   14.0780  -17.2128    0.0000 N   0  0  0  0  0  0  0  0  0  0  0  0
   11.9275  -16.8258    0.0000 C   0  0  1  0  0  0  0  0  0  0  0  0
   11.2204  -17.2510    0.0000 C   0  0  0  0  0  0  0  0  0  0  0  0
   11.9128  -16.0009    0.0000 O   0  0  0  0  0  0  0  0  0  0  0  0
   14.9381  -16.0926    0.0000 C   0  0  0  0  0  0  0  0  0  0  0  0
    7.7766  -11.9563    0.0000 C   0  0  0  0  0  0  0  0  0  0  0  0
    8.4922  -12.3638    0.0000 S   0  0  0  0  0  0  0  0  0  0  0  0
    9.2043  -11.9470    0.0000 O   0  0  0  0  0  0  0  0  0  0  0  0
    8.0848  -13.0794    0.0000 O   0  0  0  0  0  0  0  0  0  0  0  0
    8.8998  -13.0794    0.0000 O   0  0  0  0  0  0  0  0  0  0  0  0
   12.0730  -11.9563    0.0000 C   0  0  0  0  0  0  0  0  0  0  0  0
   12.7887  -12.3638    0.0000 S   0  0  0  0  0  0  0  0  0  0  0  0
   13.5007  -11.9470    0.0000 O   0  0  0  0  0  0  0  0  0  0  0  0
   12.3811  -13.0794    0.0000 O   0  0  0  0  0  0  0  0  0  0  0  0
   13.1962  -13.0794    0.0000 O   0  0  0  0  0  0  0  0  0  0  0  0
   16.3694  -11.9563    0.0000 C   0  0  0  0  0  0  0  0  0  0  0  0
   17.0851  -12.3638    0.0000 S   0  0  0  0  0  0  0  0  0  0  0  0
   17.7970  -11.9470    0.0000 O   0  0  0  0  0  0  0  0  0  0  0  0
   16.6775  -13.0794    0.0000 O   0  0  0  0  0  0  0  0  0  0  0  0
   17.4925  -13.0794    0.0000 O   0  0  0  0  0  0  0  0  0  0  0  0
   16.8899  -22.2451    0.0000 C   0  0  0  0  0  0  0  0  0  0  0  0
   17.6056  -21.8375    0.0000 S   0  0  0  0  0  0  0  0  0  0  0  0
   18.3175  -22.2543    0.0000 O   0  0  0  0  0  0  0  0  0  0  0  0
   17.1981  -21.1219    0.0000 O   0  0  0  0  0  0  0  0  0  0  0  0
   18.0132  -21.1219    0.0000 O   0  0  0  0  0  0  0  0  0  0  0  0
   11.2189  -20.5288    0.0000 C   0  0  0  0  0  0  0  0  0  0  0  0
   10.5032  -20.9365    0.0000 S   0  0  0  0  0  0  0  0  0  0  0  0
    9.7913  -20.5197    0.0000 O   0  0  0  0  0  0  0  0  0  0  0  0
   10.9108  -21.6521    0.0000 O   0  0  0  0  0  0  0  0  0  0  0  0
   10.0958  -21.6521    0.0000 O   0  0  0  0  0  0  0  0  0  0  0  0
    5.6321  -15.6581    0.0000 C   0  0  0  0  0  0  0  0  0  0  0  0
    6.3467  -16.0705    0.0000 C   0  0  0  0  0  0  0  0  0  0  0  0
    6.3469  -16.8955    0.0000 C   0  0  0  0  0  0  0  0  0  0  0  0
    7.0614  -17.3077    0.0000 C   0  0  1  0  0  0  0  0  0  0  0  0
    7.0616  -18.1327    0.0000 C   0  0  0  0  0  0  0  0  0  0  0  0
    7.7758  -16.8952    0.0000 C   0  0  0  0  0  0  0  0  0  0  0  0
    7.7762  -18.5451    0.0000 C   0  0  0  0  0  0  0  0  0  0  0  0
   19.1938  -16.9617    0.0000 C   0  0  0  0  0  0  0  0  0  0  0  0
   19.9301  -15.7371    0.0000 C   0  0  0  0  0  0  0  0  0  0  0  0
   16.9368  -19.8040    0.0000 C   0  0  0  0  0  0  0  0  0  0  0  0
   18.3649  -19.8549    0.0000 C   0  0  0  0  0  0  0  0  0  0  0  0
  1  2  1  0  0  0  0
  2  3  1  0  0  0  0
  2  4  2  0  0  0  0
  5  3  1  1  0  0  0
  5  6  1  0  0  0  0
  6  7  1  0  0  0  0
  6  8  2  0  0  0  0
  5  9  1  0  0  0  0
  9 10  1  0  0  0  0
 10 11  1  0  0  0  0
 12  7  1  6  0  0  0
 12 13  1  0  0  0  0
 13 14  1  0  0  0  0
 13 15  2  0  0  0  0
 12 16  1  0  0  0  0
 16 17  1  0  0  0  0
 16 18  1  6  0  0  0
 19 14  1  1  0  0  0
 19 20  1  0  0  0  0
 20 21  1  0  0  0  0
 20 22  2  0  0  0  0
 19 23  1  0  0  0  0
 23 24  1  0  0  0  0
 24 25  1  0  0  0  0
 26 21  1  6  0  0  0
 26 27  1  0  0  0  0
 27 28  1  0  0  0  0
 27 29  2  0  0  0  0
 26 30  1  0  0  0  0
 31 28  1  1  0  0  0
 31 32  1  0  0  0  0
 32 33  1  0  0  0  0
 32 34  2  0  0  0  0
 31 35  1  0  0  0  0
 35 36  1  0  0  0  0
 36 37  1  0  0  0  0
 38 33  1  6  0  0  0
 38 39  1  0  0  0  0
 39 40  1  0  0  0  0
 39 41  2  0  0  0  0
 38 42  1  0  0  0  0
 42 43  1  0  0  0  0
 44 40  1  1  0  0  0
 44 45  1  0  0  0  0
 45 46  1  0  0  0  0
 45 47  2  0  0  0  0
 44 48  1  0  0  0  0
 48 49  1  0  0  0  0
 50 46  1  1  0  0  0
 50 51  1  0  0  0  0
 51 52  1  0  0  0  0
 51 53  2  0  0  0  0
 50 54  1  0  0  0  0
 54 55  1  0  0  0  0
 55 56  1  0  0  0  0
 57 52  1  1  0  0  0
 57 58  1  0  0  0  0
 58 59  1  0  0  0  0
 58 60  2  0  0  0  0
 57 61  1  0  0  0  0
 61 62  1  0  0  0  0
 62 63  1  0  0  0  0
 64 59  1  1  0  0  0
 64 65  1  0  0  0  0
 65 66  2  0  0  0  0
 65 67  1  0  0  0  0
 64 68  1  0  0  0  0
 68 69  1  0  0  0  0
 68 70  1  1  0  0  0
 30 71  1  0  0  0  0
 71 67  1  0  0  0  0
 72 73  1  0  0  0  0
 73 74  1  0  0  0  0
 73 75  2  0  0  0  0
 73 76  2  0  0  0  0
 72 11  1  0  0  0  0
 77 78  1  0  0  0  0
 78 79  1  0  0  0  0
 78 80  2  0  0  0  0
 78 81  2  0  0  0  0
 77 25  1  0  0  0  0
 82 83  1  0  0  0  0
 83 84  1  0  0  0  0
 83 85  2  0  0  0  0
 83 86  2  0  0  0  0
 82 37  1  0  0  0  0
 87 88  1  0  0  0  0
 88 89  1  0  0  0  0
 88 90  2  0  0  0  0
 88 91  2  0  0  0  0
 87 56  1  0  0  0  0
 92 93  1  0  0  0  0
 93 94  1  0  0  0  0
 93 95  2  0  0  0  0
 93 96  2  0  0  0  0
 92 63  1  0  0  0  0
  1 97  1  0  0  0  0
 97 98  1  0  0  0  0
 98 99  1  0  0  0  0
 99100  1  0  0  0  0
100101  1  0  0  0  0
100102  1  6  0  0  0
101103  1  0  0  0  0
 43104  1  0  0  0  0
 43105  1  0  0  0  0
 49106  1  0  0  0  0
 49107  1  0  0  0  0
M  END

>  <ACTIVITY>
5.00
$$$$
59671

  Mrv0541 05041708502D          

106106  0  0  1  0            999 V2000
    5.8209  -26.3434    0.0000 C   0  0  0  0  0  0  0  0  0  0  0  0
    6.5366  -25.9358    0.0000 C   0  0  0  0  0  0  0  0  0  0  0  0
    7.2485  -26.3525    0.0000 N   0  0  0  0  0  0  0  0  0  0  0  0
    6.5415  -25.1108    0.0000 O   0  0  0  0  0  0  0  0  0  0  0  0
    7.9678  -25.9458    0.0000 C   0  0  2  0  0  0  0  0  0  0  0  0
    8.6786  -26.3646    0.0000 C   0  0  0  0  0  0  0  0  0  0  0  0
    9.3968  -25.9585    0.0000 N   0  0  0  0  0  0  0  0  0  0  0  0
    8.6713  -27.1896    0.0000 O   0  0  0  0  0  0  0  0  0  0  0  0
    7.9678  -25.1208    0.0000 C   0  0  0  0  0  0  0  0  0  0  0  0
    7.2534  -24.7083    0.0000 C   0  0  0  0  0  0  0  0  0  0  0  0
    7.2534  -23.8833    0.0000 N   0  0  0  0  0  0  0  0  0  0  0  0
   10.1161  -26.3653    0.0000 C   0  0  2  0  0  0  0  0  0  0  0  0
   10.8269  -25.9464    0.0000 C   0  0  0  0  0  0  0  0  0  0  0  0
   11.5451  -26.3525    0.0000 N   0  0  0  0  0  0  0  0  0  0  0  0
   10.8196  -25.1214    0.0000 O   0  0  0  0  0  0  0  0  0  0  0  0
   10.1161  -27.1903    0.0000 C   0  0  1  0  0  0  0  0  0  0  0  0
    9.4017  -27.6028    0.0000 C   0  0  0  0  0  0  0  0  0  0  0  0
   10.8305  -27.6028    0.0000 O   0  0  0  0  0  0  0  0  0  0  0  0
   12.2644  -25.9458    0.0000 C   0  0  2  0  0  0  0  0  0  0  0  0
   12.9750  -26.3646    0.0000 C   0  0  0  0  0  0  0  0  0  0  0  0
   13.6932  -25.9585    0.0000 N   0  0  0  0  0  0  0  0  0  0  0  0
   12.9678  -27.1896    0.0000 O   0  0  0  0  0  0  0  0  0  0  0  0
   12.2644  -25.1208    0.0000 C   0  0  0  0  0  0  0  0  0  0  0  0
   11.5498  -24.7083    0.0000 C   0  0  0  0  0  0  0  0  0  0  0  0
   11.5498  -23.8833    0.0000 N   0  0  0  0  0  0  0  0  0  0  0  0
   14.4126  -26.3653    0.0000 C   0  0  2  0  0  0  0  0  0  0  0  0
   15.1233  -25.9464    0.0000 C   0  0  0  0  0  0  0  0  0  0  0  0
   15.8414  -26.3525    0.0000 N   0  0  0  0  0  0  0  0  0  0  0  0
   15.1159  -25.1214    0.0000 O   0  0  0  0  0  0  0  0  0  0  0  0
   14.4126  -27.1903    0.0000 C   0  0  0  0  0  0  0  0  0  0  0  0
   16.5607  -25.9458    0.0000 C   0  0  2  0  0  0  0  0  0  0  0  0
   17.2715  -26.3646    0.0000 C   0  0  0  0  0  0  0  0  0  0  0  0
   17.2642  -27.1896    0.0000 N   0  0  0  0  0  0  0  0  0  0  0  0
   17.9897  -25.9585    0.0000 O   0  0  0  0  0  0  0  0  0  0  0  0
   16.5607  -25.1208    0.0000 C   0  0  0  0  0  0  0  0  0  0  0  0
   15.8463  -24.7083    0.0000 C   0  0  0  0  0  0  0  0  0  0  0  0
   15.8463  -23.8833    0.0000 N   0  0  0  0  0  0  0  0  0  0  0  0
   17.9686  -27.6217    0.0000 C   0  0  1  0  0  0  0  0  0  0  0  0
   17.9466  -28.4464    0.0000 C   0  0  0  0  0  0  0  0  0  0  0  0
   17.2212  -28.8396    0.0000 N   0  0  0  0  0  0  0  0  0  0  0  0
   18.6497  -28.8779    0.0000 O   0  0  0  0  0  0  0  0  0  0  0  0
   18.6902  -27.2220    0.0000 C   0  0  0  0  0  0  0  0  0  0  0  0
   19.3973  -27.6472    0.0000 C   0  0  0  0  0  0  0  0  0  0  0  0
   17.1845  -29.6654    0.0000 C   0  0  2  0  0  0  0  0  0  0  0  0
   16.4524  -30.0456    0.0000 C   0  0  0  0  0  0  0  0  0  0  0  0
   16.4157  -30.8698    0.0000 N   0  0  0  0  0  0  0  0  0  0  0  0
   15.7570  -29.6017    0.0000 O   0  0  0  0  0  0  0  0  0  0  0  0
   17.8838  -30.1029    0.0000 C   0  0  0  0  0  0  0  0  0  0  0  0
   17.8544  -30.9275    0.0000 C   0  0  0  0  0  0  0  0  0  0  0  0
   15.6892  -31.2637    0.0000 C   0  0  2  0  0  0  0  0  0  0  0  0
   14.9860  -30.8322    0.0000 C   0  0  0  0  0  0  0  0  0  0  0  0
   14.2607  -31.2254    0.0000 N   0  0  0  0  0  0  0  0  0  0  0  0
   15.0081  -30.0075    0.0000 O   0  0  0  0  0  0  0  0  0  0  0  0
   15.6745  -32.0885    0.0000 C   0  0  0  0  0  0  0  0  0  0  0  0
   16.3815  -32.5137    0.0000 C   0  0  0  0  0  0  0  0  0  0  0  0
   16.3668  -33.3384    0.0000 N   0  0  0  0  0  0  0  0  0  0  0  0
   13.5488  -30.8059    0.0000 C   0  0  2  0  0  0  0  0  0  0  0  0
   13.5561  -29.9809    0.0000 C   0  0  0  0  0  0  0  0  0  0  0  0
   12.8455  -29.5620    0.0000 N   0  0  0  0  0  0  0  0  0  0  0  0
   14.2743  -29.5749    0.0000 O   0  0  0  0  0  0  0  0  0  0  0  0
   12.8343  -31.2184    0.0000 C   0  0  0  0  0  0  0  0  0  0  0  0
   12.8343  -32.0434    0.0000 C   0  0  0  0  0  0  0  0  0  0  0  0
   12.1199  -32.4559    0.0000 N   0  0  0  0  0  0  0  0  0  0  0  0
   12.8381  -28.7357    0.0000 C   0  0  2  0  0  0  0  0  0  0  0  0
   13.5489  -28.3169    0.0000 C   0  0  0  0  0  0  0  0  0  0  0  0
   13.5414  -27.4920    0.0000 O   0  0  0  0  0  0  0  0  0  0  0  0
   14.2669  -28.7230    0.0000 N   0  0  0  0  0  0  0  0  0  0  0  0
   12.1164  -28.3361    0.0000 C   0  0  1  0  0  0  0  0  0  0  0  0
   11.4093  -28.7612    0.0000 C   0  0  0  0  0  0  0  0  0  0  0  0
   12.1017  -27.5111    0.0000 O   0  0  0  0  0  0  0  0  0  0  0  0
   15.1270  -27.6028    0.0000 C   0  0  0  0  0  0  0  0  0  0  0  0
    7.9655  -23.4665    0.0000 C   0  0  0  0  0  0  0  0  0  0  0  0
    8.6811  -23.8741    0.0000 S   0  0  0  0  0  0  0  0  0  0  0  0
    9.3932  -23.4572    0.0000 O   0  0  0  0  0  0  0  0  0  0  0  0
    8.2736  -24.5897    0.0000 O   0  0  0  0  0  0  0  0  0  0  0  0
    9.0887  -24.5897    0.0000 O   0  0  0  0  0  0  0  0  0  0  0  0
   12.2619  -23.4665    0.0000 C   0  0  0  0  0  0  0  0  0  0  0  0
   12.9776  -23.8741    0.0000 S   0  0  0  0  0  0  0  0  0  0  0  0
   13.6896  -23.4572    0.0000 O   0  0  0  0  0  0  0  0  0  0  0  0
   12.5700  -24.5897    0.0000 O   0  0  0  0  0  0  0  0  0  0  0  0
   13.3851  -24.5897    0.0000 O   0  0  0  0  0  0  0  0  0  0  0  0
   16.5583  -23.4665    0.0000 C   0  0  0  0  0  0  0  0  0  0  0  0
   17.2740  -23.8741    0.0000 S   0  0  0  0  0  0  0  0  0  0  0  0
   17.9859  -23.4572    0.0000 O   0  0  0  0  0  0  0  0  0  0  0  0
   16.8664  -24.5897    0.0000 O   0  0  0  0  0  0  0  0  0  0  0  0
   17.6814  -24.5897    0.0000 O   0  0  0  0  0  0  0  0  0  0  0  0
   17.0788  -33.7553    0.0000 C   0  0  0  0  0  0  0  0  0  0  0  0
   17.7945  -33.3477    0.0000 S   0  0  0  0  0  0  0  0  0  0  0  0
   18.5064  -33.7646    0.0000 O   0  0  0  0  0  0  0  0  0  0  0  0
   17.3870  -32.6322    0.0000 O   0  0  0  0  0  0  0  0  0  0  0  0
   18.2021  -32.6322    0.0000 O   0  0  0  0  0  0  0  0  0  0  0  0
   11.4078  -32.0390    0.0000 C   0  0  0  0  0  0  0  0  0  0  0  0
   10.6921  -32.4468    0.0000 S   0  0  0  0  0  0  0  0  0  0  0  0
    9.9802  -32.0300    0.0000 O   0  0  0  0  0  0  0  0  0  0  0  0
   11.0997  -33.1623    0.0000 O   0  0  0  0  0  0  0  0  0  0  0  0
   10.2847  -33.1623    0.0000 O   0  0  0  0  0  0  0  0  0  0  0  0
    5.8210  -27.1684    0.0000 C   0  0  0  0  0  0  0  0  0  0  0  0
    6.5356  -27.5807    0.0000 C   0  0  0  0  0  0  0  0  0  0  0  0
    6.5358  -28.4057    0.0000 C   0  0  0  0  0  0  0  0  0  0  0  0
    7.2503  -28.8179    0.0000 C   0  0  0  0  0  0  0  0  0  0  0  0
    7.2504  -29.6429    0.0000 C   0  0  0  0  0  0  0  0  0  0  0  0
    7.9647  -28.4054    0.0000 C   0  0  0  0  0  0  0  0  0  0  0  0
   19.3827  -28.4719    0.0000 C   0  0  0  0  0  0  0  0  0  0  0  0
   20.1190  -27.2473    0.0000 C   0  0  0  0  0  0  0  0  0  0  0  0
   17.1257  -31.3143    0.0000 C   0  0  0  0  0  0  0  0  0  0  0  0
   18.5538  -31.3651    0.0000 C   0  0  0  0  0  0  0  0  0  0  0  0
  1  2  1  0  0  0  0
  2  3  1  0  0  0  0
  2  4  2  0  0  0  0
  5  3  1  1  0  0  0
  5  6  1  0  0  0  0
  6  7  1  0  0  0  0
  6  8  2  0  0  0  0
  5  9  1  0  0  0  0
  9 10  1  0  0  0  0
 10 11  1  0  0  0  0
 12  7  1  6  0  0  0
 12 13  1  0  0  0  0
 13 14  1  0  0  0  0
 13 15  2  0  0  0  0
 12 16  1  0  0  0  0
 16 17  1  0  0  0  0
 16 18  1  6  0  0  0
 19 14  1  1  0  0  0
 19 20  1  0  0  0  0
 20 21  1  0  0  0  0
 20 22  2  0  0  0  0
 19 23  1  0  0  0  0
 23 24  1  0  0  0  0
 24 25  1  0  0  0  0
 26 21  1  6  0  0  0
 26 27  1  0  0  0  0
 27 28  1  0  0  0  0
 27 29  2  0  0  0  0
 26 30  1  0  0  0  0
 31 28  1  1  0  0  0
 31 32  1  0  0  0  0
 32 33  1  0  0  0  0
 32 34  2  0  0  0  0
 31 35  1  0  0  0  0
 35 36  1  0  0  0  0
 36 37  1  0  0  0  0
 38 33  1  6  0  0  0
 38 39  1  0  0  0  0
 39 40  1  0  0  0  0
 39 41  2  0  0  0  0
 38 42  1  0  0  0  0
 42 43  1  0  0  0  0
 44 40  1  1  0  0  0
 44 45  1  0  0  0  0
 45 46  1  0  0  0  0
 45 47  2  0  0  0  0
 44 48  1  0  0  0  0
 48 49  1  0  0  0  0
 50 46  1  1  0  0  0
 50 51  1  0  0  0  0
 51 52  1  0  0  0  0
 51 53  2  0  0  0  0
 50 54  1  0  0  0  0
 54 55  1  0  0  0  0
 55 56  1  0  0  0  0
 57 52  1  1  0  0  0
 57 58  1  0  0  0  0
 58 59  1  0  0  0  0
 58 60  2  0  0  0  0
 57 61  1  0  0  0  0
 61 62  1  0  0  0  0
 62 63  1  0  0  0  0
 64 59  1  1  0  0  0
 64 65  1  0  0  0  0
 65 66  2  0  0  0  0
 65 67  1  0  0  0  0
 64 68  1  0  0  0  0
 68 69  1  0  0  0  0
 68 70  1  1  0  0  0
 30 71  1  0  0  0  0
 71 67  1  0  0  0  0
 72 73  1  0  0  0  0
 73 74  1  0  0  0  0
 73 75  2  0  0  0  0
 73 76  2  0  0  0  0
 72 11  1  0  0  0  0
 77 78  1  0  0  0  0
 78 79  1  0  0  0  0
 78 80  2  0  0  0  0
 78 81  2  0  0  0  0
 77 25  1  0  0  0  0
 82 83  1  0  0  0  0
 83 84  1  0  0  0  0
 83 85  2  0  0  0  0
 83 86  2  0  0  0  0
 82 37  1  0  0  0  0
 87 88  1  0  0  0  0
 88 89  1  0  0  0  0
 88 90  2  0  0  0  0
 88 91  2  0  0  0  0
 87 56  1  0  0  0  0
 92 93  1  0  0  0  0
 93 94  1  0  0  0  0
 93 95  2  0  0  0  0
 93 96  2  0  0  0  0
 92 63  1  0  0  0  0
  1 97  1  0  0  0  0
 97 98  1  0  0  0  0
 98 99  1  0  0  0  0
 99100  1  0  0  0  0
100101  1  0  0  0  0
100102  1  0  0  0  0
 43103  1  0  0  0  0
 43104  1  0  0  0  0
 49105  1  0  0  0  0
 49106  1  0  0  0  0
M  END

>  <ACTIVITY>
5.00
$$$$
59667

  Mrv0541 05041708502D          

106106  0  0  1  0            999 V2000
    5.8209  -26.3434    0.0000 C   0  0  0  0  0  0  0  0  0  0  0  0
    6.5366  -25.9358    0.0000 C   0  0  0  0  0  0  0  0  0  0  0  0
    7.2485  -26.3525    0.0000 N   0  0  0  0  0  0  0  0  0  0  0  0
    6.5415  -25.1108    0.0000 O   0  0  0  0  0  0  0  0  0  0  0  0
    7.9678  -25.9458    0.0000 C   0  0  2  0  0  0  0  0  0  0  0  0
    8.6786  -26.3646    0.0000 C   0  0  0  0  0  0  0  0  0  0  0  0
    9.3968  -25.9585    0.0000 N   0  0  0  0  0  0  0  0  0  0  0  0
    8.6713  -27.1896    0.0000 O   0  0  0  0  0  0  0  0  0  0  0  0
    7.9678  -25.1208    0.0000 C   0  0  0  0  0  0  0  0  0  0  0  0
    7.2534  -24.7083    0.0000 C   0  0  0  0  0  0  0  0  0  0  0  0
    7.2534  -23.8833    0.0000 N   0  0  0  0  0  0  0  0  0  0  0  0
   10.1161  -26.3653    0.0000 C   0  0  2  0  0  0  0  0  0  0  0  0
   10.8269  -25.9464    0.0000 C   0  0  0  0  0  0  0  0  0  0  0  0
   11.5451  -26.3525    0.0000 N   0  0  0  0  0  0  0  0  0  0  0  0
   10.8196  -25.1214    0.0000 O   0  0  0  0  0  0  0  0  0  0  0  0
   10.1161  -27.1903    0.0000 C   0  0  1  0  0  0  0  0  0  0  0  0
    9.4017  -27.6028    0.0000 C   0  0  0  0  0  0  0  0  0  0  0  0
   10.8305  -27.6028    0.0000 O   0  0  0  0  0  0  0  0  0  0  0  0
   12.2644  -25.9458    0.0000 C   0  0  2  0  0  0  0  0  0  0  0  0
   12.9750  -26.3646    0.0000 C   0  0  0  0  0  0  0  0  0  0  0  0
   13.6932  -25.9585    0.0000 N   0  0  0  0  0  0  0  0  0  0  0  0
   12.9678  -27.1896    0.0000 O   0  0  0  0  0  0  0  0  0  0  0  0
   12.2644  -25.1208    0.0000 C   0  0  0  0  0  0  0  0  0  0  0  0
   11.5498  -24.7083    0.0000 C   0  0  0  0  0  0  0  0  0  0  0  0
   11.5498  -23.8833    0.0000 N   0  0  0  0  0  0  0  0  0  0  0  0
   14.4126  -26.3653    0.0000 C   0  0  2  0  0  0  0  0  0  0  0  0
   15.1233  -25.9464    0.0000 C   0  0  0  0  0  0  0  0  0  0  0  0
   15.8414  -26.3525    0.0000 N   0  0  0  0  0  0  0  0  0  0  0  0
   15.1159  -25.1214    0.0000 O   0  0  0  0  0  0  0  0  0  0  0  0
   14.4126  -27.1903    0.0000 C   0  0  0  0  0  0  0  0  0  0  0  0
   16.5607  -25.9458    0.0000 C   0  0  2  0  0  0  0  0  0  0  0  0
   17.2715  -26.3646    0.0000 C   0  0  0  0  0  0  0  0  0  0  0  0
   17.2642  -27.1896    0.0000 N   0  0  0  0  0  0  0  0  0  0  0  0
   17.9897  -25.9585    0.0000 O   0  0  0  0  0  0  0  0  0  0  0  0
   16.5607  -25.1208    0.0000 C   0  0  0  0  0  0  0  0  0  0  0  0
   15.8463  -24.7083    0.0000 C   0  0  0  0  0  0  0  0  0  0  0  0
   15.8463  -23.8833    0.0000 N   0  0  0  0  0  0  0  0  0  0  0  0
   17.9686  -27.6217    0.0000 C   0  0  1  0  0  0  0  0  0  0  0  0
   17.9466  -28.4464    0.0000 C   0  0  0  0  0  0  0  0  0  0  0  0
   17.2212  -28.8396    0.0000 N   0  0  0  0  0  0  0  0  0  0  0  0
   18.6497  -28.8779    0.0000 O   0  0  0  0  0  0  0  0  0  0  0  0
   18.6902  -27.2220    0.0000 C   0  0  0  0  0  0  0  0  0  0  0  0
   19.3973  -27.6472    0.0000 C   0  0  0  0  0  0  0  0  0  0  0  0
   17.1845  -29.6654    0.0000 C   0  0  2  0  0  0  0  0  0  0  0  0
   16.4524  -30.0456    0.0000 C   0  0  0  0  0  0  0  0  0  0  0  0
   16.4157  -30.8698    0.0000 N   0  0  0  0  0  0  0  0  0  0  0  0
   15.7570  -29.6017    0.0000 O   0  0  0  0  0  0  0  0  0  0  0  0
   17.8838  -30.1029    0.0000 C   0  0  0  0  0  0  0  0  0  0  0  0
   17.8544  -30.9275    0.0000 C   0  0  0  0  0  0  0  0  0  0  0  0
   15.6892  -31.2637    0.0000 C   0  0  2  0  0  0  0  0  0  0  0  0
   14.9860  -30.8322    0.0000 C   0  0  0  0  0  0  0  0  0  0  0  0
   14.2607  -31.2254    0.0000 N   0  0  0  0  0  0  0  0  0  0  0  0
   15.0081  -30.0075    0.0000 O   0  0  0  0  0  0  0  0  0  0  0  0
   15.6745  -32.0885    0.0000 C   0  0  0  0  0  0  0  0  0  0  0  0
   16.3815  -32.5137    0.0000 C   0  0  0  0  0  0  0  0  0  0  0  0
   16.3668  -33.3384    0.0000 N   0  0  0  0  0  0  0  0  0  0  0  0
   13.5488  -30.8059    0.0000 C   0  0  2  0  0  0  0  0  0  0  0  0
   13.5561  -29.9809    0.0000 C   0  0  0  0  0  0  0  0  0  0  0  0
   12.8455  -29.5620    0.0000 N   0  0  0  0  0  0  0  0  0  0  0  0
   14.2743  -29.5749    0.0000 O   0  0  0  0  0  0  0  0  0  0  0  0
   12.8343  -31.2184    0.0000 C   0  0  0  0  0  0  0  0  0  0  0  0
   12.8343  -32.0434    0.0000 C   0  0  0  0  0  0  0  0  0  0  0  0
   12.1199  -32.4559    0.0000 N   0  0  0  0  0  0  0  0  0  0  0  0
   12.8381  -28.7357    0.0000 C   0  0  2  0  0  0  0  0  0  0  0  0
   13.5489  -28.3169    0.0000 C   0  0  0  0  0  0  0  0  0  0  0  0
   13.5414  -27.4920    0.0000 O   0  0  0  0  0  0  0  0  0  0  0  0
   14.2669  -28.7230    0.0000 N   0  0  0  0  0  0  0  0  0  0  0  0
   12.1164  -28.3361    0.0000 C   0  0  1  0  0  0  0  0  0  0  0  0
   11.4093  -28.7612    0.0000 C   0  0  0  0  0  0  0  0  0  0  0  0
   12.1017  -27.5111    0.0000 O   0  0  0  0  0  0  0  0  0  0  0  0
   15.1270  -27.6028    0.0000 C   0  0  0  0  0  0  0  0  0  0  0  0
    7.9655  -23.4665    0.0000 C   0  0  0  0  0  0  0  0  0  0  0  0
    8.6811  -23.8741    0.0000 S   0  0  0  0  0  0  0  0  0  0  0  0
    9.3932  -23.4572    0.0000 O   0  5  0  0  0  0  0  0  0  0  0  0
    8.2736  -24.5897    0.0000 O   0  0  0  0  0  0  0  0  0  0  0  0
    9.0887  -24.5897    0.0000 O   0  0  0  0  0  0  0  0  0  0  0  0
   12.2619  -23.4665    0.0000 C   0  0  0  0  0  0  0  0  0  0  0  0
   12.9776  -23.8741    0.0000 S   0  0  0  0  0  0  0  0  0  0  0  0
   13.6896  -23.4572    0.0000 O   0  5  0  0  0  0  0  0  0  0  0  0
   12.5700  -24.5897    0.0000 O   0  0  0  0  0  0  0  0  0  0  0  0
   13.3851  -24.5897    0.0000 O   0  0  0  0  0  0  0  0  0  0  0  0
   16.5583  -23.4665    0.0000 C   0  0  0  0  0  0  0  0  0  0  0  0
   17.2740  -23.8741    0.0000 S   0  0  0  0  0  0  0  0  0  0  0  0
   17.9859  -23.4572    0.0000 O   0  5  0  0  0  0  0  0  0  0  0  0
   16.8664  -24.5897    0.0000 O   0  0  0  0  0  0  0  0  0  0  0  0
   17.6814  -24.5897    0.0000 O   0  0  0  0  0  0  0  0  0  0  0  0
   17.0788  -33.7553    0.0000 C   0  0  0  0  0  0  0  0  0  0  0  0
   17.7945  -33.3477    0.0000 S   0  0  0  0  0  0  0  0  0  0  0  0
   18.5064  -33.7646    0.0000 O   0  5  0  0  0  0  0  0  0  0  0  0
   17.3870  -32.6322    0.0000 O   0  0  0  0  0  0  0  0  0  0  0  0
   18.2021  -32.6322    0.0000 O   0  0  0  0  0  0  0  0  0  0  0  0
   11.4078  -32.0390    0.0000 C   0  0  0  0  0  0  0  0  0  0  0  0
   10.6921  -32.4468    0.0000 S   0  0  0  0  0  0  0  0  0  0  0  0
    9.9802  -32.0300    0.0000 O   0  5  0  0  0  0  0  0  0  0  0  0
   11.0997  -33.1623    0.0000 O   0  0  0  0  0  0  0  0  0  0  0  0
   10.2847  -33.1623    0.0000 O   0  0  0  0  0  0  0  0  0  0  0  0
    5.8210  -27.1684    0.0000 C   0  0  0  0  0  0  0  0  0  0  0  0
    6.5356  -27.5807    0.0000 C   0  0  0  0  0  0  0  0  0  0  0  0
    6.5358  -28.4057    0.0000 C   0  0  0  0  0  0  0  0  0  0  0  0
    7.2503  -28.8179    0.0000 C   0  0  0  0  0  0  0  0  0  0  0  0
    7.2504  -29.6429    0.0000 C   0  0  0  0  0  0  0  0  0  0  0  0
    7.9647  -28.4054    0.0000 C   0  0  0  0  0  0  0  0  0  0  0  0
   19.3827  -28.4719    0.0000 C   0  0  0  0  0  0  0  0  0  0  0  0
   20.1190  -27.2473    0.0000 C   0  0  0  0  0  0  0  0  0  0  0  0
   17.1257  -31.3143    0.0000 C   0  0  0  0  0  0  0  0  0  0  0  0
   18.5538  -31.3651    0.0000 C   0  0  0  0  0  0  0  0  0  0  0  0
  1  2  1  0  0  0  0
  2  3  1  0  0  0  0
  2  4  2  0  0  0  0
  5  3  1  1  0  0  0
  5  6  1  0  0  0  0
  6  7  1  0  0  0  0
  6  8  2  0  0  0  0
  5  9  1  0  0  0  0
  9 10  1  0  0  0  0
 10 11  1  0  0  0  0
 12  7  1  6  0  0  0
 12 13  1  0  0  0  0
 13 14  1  0  0  0  0
 13 15  2  0  0  0  0
 12 16  1  0  0  0  0
 16 17  1  0  0  0  0
 16 18  1  6  0  0  0
 19 14  1  1  0  0  0
 19 20  1  0  0  0  0
 20 21  1  0  0  0  0
 20 22  2  0  0  0  0
 19 23  1  0  0  0  0
 23 24  1  0  0  0  0
 24 25  1  0  0  0  0
 26 21  1  6  0  0  0
 26 27  1  0  0  0  0
 27 28  1  0  0  0  0
 27 29  2  0  0  0  0
 26 30  1  0  0  0  0
 31 28  1  1  0  0  0
 31 32  1  0  0  0  0
 32 33  1  0  0  0  0
 32 34  2  0  0  0  0
 31 35  1  0  0  0  0
 35 36  1  0  0  0  0
 36 37  1  0  0  0  0
 38 33  1  6  0  0  0
 38 39  1  0  0  0  0
 39 40  1  0  0  0  0
 39 41  2  0  0  0  0
 38 42  1  0  0  0  0
 42 43  1  0  0  0  0
 44 40  1  1  0  0  0
 44 45  1  0  0  0  0
 45 46  1  0  0  0  0
 45 47  2  0  0  0  0
 44 48  1  0  0  0  0
 48 49  1  0  0  0  0
 50 46  1  1  0  0  0
 50 51  1  0  0  0  0
 51 52  1  0  0  0  0
 51 53  2  0  0  0  0
 50 54  1  0  0  0  0
 54 55  1  0  0  0  0
 55 56  1  0  0  0  0
 57 52  1  1  0  0  0
 57 58  1  0  0  0  0
 58 59  1  0  0  0  0
 58 60  2  0  0  0  0
 57 61  1  0  0  0  0
 61 62  1  0  0  0  0
 62 63  1  0  0  0  0
 64 59  1  1  0  0  0
 64 65  1  0  0  0  0
 65 66  2  0  0  0  0
 65 67  1  0  0  0  0
 64 68  1  0  0  0  0
 68 69  1  0  0  0  0
 68 70  1  1  0  0  0
 30 71  1  0  0  0  0
 71 67  1  0  0  0  0
 72 73  1  0  0  0  0
 73 74  1  0  0  0  0
 73 75  2  0  0  0  0
 73 76  2  0  0  0  0
 72 11  1  0  0  0  0
 77 78  1  0  0  0  0
 78 79  1  0  0  0  0
 78 80  2  0  0  0  0
 78 81  2  0  0  0  0
 77 25  1  0  0  0  0
 82 83  1  0  0  0  0
 83 84  1  0  0  0  0
 83 85  2  0  0  0  0
 83 86  2  0  0  0  0
 82 37  1  0  0  0  0
 87 88  1  0  0  0  0
 88 89  1  0  0  0  0
 88 90  2  0  0  0  0
 88 91  2  0  0  0  0
 87 56  1  0  0  0  0
 92 93  1  0  0  0  0
 93 94  1  0  0  0  0
 93 95  2  0  0  0  0
 93 96  2  0  0  0  0
 92 63  1  0  0  0  0
  1 97  1  0  0  0  0
 97 98  1  0  0  0  0
 98 99  1  0  0  0  0
 99100  1  0  0  0  0
100101  1  0  0  0  0
100102  1  0  0  0  0
 43103  1  0  0  0  0
 43104  1  0  0  0  0
 49105  1  0  0  0  0
 49106  1  0  0  0  0
M  CHG  5  74  -1  79  -1  84  -1  89  -1  94  -1
M  END

>  <ACTIVITY>
5.00
$$$$
59662

  Mrv0541 05041708502D          

107107  0  0  1  0            999 V2000
    5.6320  -14.8331    0.0000 C   0  0  0  0  0  0  0  0  0  0  0  0
    6.3477  -14.4256    0.0000 C   0  0  0  0  0  0  0  0  0  0  0  0
    7.0596  -14.8423    0.0000 N   0  0  0  0  0  0  0  0  0  0  0  0
    6.3526  -13.6006    0.0000 O   0  0  0  0  0  0  0  0  0  0  0  0
    7.7789  -14.4355    0.0000 C   0  0  2  0  0  0  0  0  0  0  0  0
    8.4897  -14.8544    0.0000 C   0  0  0  0  0  0  0  0  0  0  0  0
    9.2079  -14.4483    0.0000 N   0  0  0  0  0  0  0  0  0  0  0  0
    8.4824  -15.6793    0.0000 O   0  0  0  0  0  0  0  0  0  0  0  0
    7.7789  -13.6105    0.0000 C   0  0  0  0  0  0  0  0  0  0  0  0
    7.0645  -13.1980    0.0000 C   0  0  0  0  0  0  0  0  0  0  0  0
    7.0645  -12.3730    0.0000 N   0  0  0  0  0  0  0  0  0  0  0  0
    9.9272  -14.8551    0.0000 C   0  0  2  0  0  0  0  0  0  0  0  0
   10.6380  -14.4362    0.0000 C   0  0  0  0  0  0  0  0  0  0  0  0
   11.3562  -14.8423    0.0000 N   0  0  0  0  0  0  0  0  0  0  0  0
   10.6307  -13.6112    0.0000 O   0  0  0  0  0  0  0  0  0  0  0  0
    9.9272  -15.6801    0.0000 C   0  0  1  0  0  0  0  0  0  0  0  0
    9.2128  -16.0926    0.0000 C   0  0  0  0  0  0  0  0  0  0  0  0
   10.6416  -16.0926    0.0000 O   0  0  0  0  0  0  0  0  0  0  0  0
   12.0755  -14.4355    0.0000 C   0  0  2  0  0  0  0  0  0  0  0  0
   12.7861  -14.8544    0.0000 C   0  0  0  0  0  0  0  0  0  0  0  0
   13.5043  -14.4483    0.0000 N   0  0  0  0  0  0  0  0  0  0  0  0
   12.7789  -15.6793    0.0000 O   0  0  0  0  0  0  0  0  0  0  0  0
   12.0755  -13.6105    0.0000 C   0  0  0  0  0  0  0  0  0  0  0  0
   11.3609  -13.1980    0.0000 C   0  0  0  0  0  0  0  0  0  0  0  0
   11.3609  -12.3730    0.0000 N   0  0  0  0  0  0  0  0  0  0  0  0
   14.2237  -14.8551    0.0000 C   0  0  2  0  0  0  0  0  0  0  0  0
   14.9344  -14.4362    0.0000 C   0  0  0  0  0  0  0  0  0  0  0  0
   15.6525  -14.8423    0.0000 N   0  0  0  0  0  0  0  0  0  0  0  0
   14.9270  -13.6112    0.0000 O   0  0  0  0  0  0  0  0  0  0  0  0
   14.2237  -15.6801    0.0000 C   0  0  0  0  0  0  0  0  0  0  0  0
   16.3718  -14.4355    0.0000 C   0  0  2  0  0  0  0  0  0  0  0  0
   17.0826  -14.8544    0.0000 C   0  0  0  0  0  0  0  0  0  0  0  0
   17.0753  -15.6793    0.0000 N   0  0  0  0  0  0  0  0  0  0  0  0
   17.8008  -14.4482    0.0000 O   0  0  0  0  0  0  0  0  0  0  0  0
   16.3718  -13.6105    0.0000 C   0  0  0  0  0  0  0  0  0  0  0  0
   15.6574  -13.1980    0.0000 C   0  0  0  0  0  0  0  0  0  0  0  0
   15.6574  -12.3730    0.0000 N   0  0  0  0  0  0  0  0  0  0  0  0
   17.7797  -16.1115    0.0000 C   0  0  1  0  0  0  0  0  0  0  0  0
   17.7577  -16.9362    0.0000 C   0  0  0  0  0  0  0  0  0  0  0  0
   17.0323  -17.3294    0.0000 N   0  0  0  0  0  0  0  0  0  0  0  0
   18.4608  -17.3676    0.0000 O   0  0  0  0  0  0  0  0  0  0  0  0
   18.5013  -15.7117    0.0000 C   0  0  0  0  0  0  0  0  0  0  0  0
   19.2084  -16.1369    0.0000 C   0  0  0  0  0  0  0  0  0  0  0  0
   16.9956  -18.1551    0.0000 C   0  0  2  0  0  0  0  0  0  0  0  0
   16.2635  -18.5353    0.0000 C   0  0  0  0  0  0  0  0  0  0  0  0
   16.2268  -19.3595    0.0000 N   0  0  0  0  0  0  0  0  0  0  0  0
   15.5681  -18.0914    0.0000 O   0  0  0  0  0  0  0  0  0  0  0  0
   17.6949  -18.5927    0.0000 C   0  0  0  0  0  0  0  0  0  0  0  0
   17.6655  -19.4172    0.0000 C   0  0  0  0  0  0  0  0  0  0  0  0
   15.5003  -19.7534    0.0000 C   0  0  2  0  0  0  0  0  0  0  0  0
   14.7972  -19.3220    0.0000 C   0  0  0  0  0  0  0  0  0  0  0  0
   14.0718  -19.7152    0.0000 N   0  0  0  0  0  0  0  0  0  0  0  0
   14.8192  -18.4973    0.0000 O   0  0  0  0  0  0  0  0  0  0  0  0
   15.4856  -20.5783    0.0000 C   0  0  0  0  0  0  0  0  0  0  0  0
   16.1926  -21.0035    0.0000 C   0  0  0  0  0  0  0  0  0  0  0  0
   16.1779  -21.8282    0.0000 N   0  0  0  0  0  0  0  0  0  0  0  0
   13.3599  -19.2957    0.0000 C   0  0  2  0  0  0  0  0  0  0  0  0
   13.3672  -18.4707    0.0000 C   0  0  0  0  0  0  0  0  0  0  0  0
   12.6566  -18.0518    0.0000 N   0  0  0  0  0  0  0  0  0  0  0  0
   14.0854  -18.0646    0.0000 O   0  0  0  0  0  0  0  0  0  0  0  0
   12.6455  -19.7082    0.0000 C   0  0  0  0  0  0  0  0  0  0  0  0
   12.6455  -20.5332    0.0000 C   0  0  0  0  0  0  0  0  0  0  0  0
   11.9311  -20.9457    0.0000 N   0  0  0  0  0  0  0  0  0  0  0  0
   12.6492  -17.2255    0.0000 C   0  0  2  0  0  0  0  0  0  0  0  0
   13.3600  -16.8066    0.0000 C   0  0  0  0  0  0  0  0  0  0  0  0
   13.3525  -15.9817    0.0000 O   0  0  0  0  0  0  0  0  0  0  0  0
   14.0780  -17.2128    0.0000 N   0  0  0  0  0  0  0  0  0  0  0  0
   11.9275  -16.8258    0.0000 C   0  0  1  0  0  0  0  0  0  0  0  0
   11.2204  -17.2510    0.0000 C   0  0  0  0  0  0  0  0  0  0  0  0
   11.9128  -16.0009    0.0000 O   0  0  0  0  0  0  0  0  0  0  0  0
   14.9381  -16.0926    0.0000 C   0  0  0  0  0  0  0  0  0  0  0  0
    7.7766  -11.9563    0.0000 C   0  0  0  0  0  0  0  0  0  0  0  0
    8.4922  -12.3638    0.0000 S   0  0  0  0  0  0  0  0  0  0  0  0
    9.2043  -11.9470    0.0000 O   0  0  0  0  0  0  0  0  0  0  0  0
    8.0848  -13.0794    0.0000 O   0  0  0  0  0  0  0  0  0  0  0  0
    8.8998  -13.0794    0.0000 O   0  0  0  0  0  0  0  0  0  0  0  0
   12.0730  -11.9563    0.0000 C   0  0  0  0  0  0  0  0  0  0  0  0
   12.7887  -12.3638    0.0000 S   0  0  0  0  0  0  0  0  0  0  0  0
   13.5007  -11.9470    0.0000 O   0  0  0  0  0  0  0  0  0  0  0  0
   12.3811  -13.0794    0.0000 O   0  0  0  0  0  0  0  0  0  0  0  0
   13.1962  -13.0794    0.0000 O   0  0  0  0  0  0  0  0  0  0  0  0
   16.3694  -11.9563    0.0000 C   0  0  0  0  0  0  0  0  0  0  0  0
   17.0851  -12.3638    0.0000 S   0  0  0  0  0  0  0  0  0  0  0  0
   17.7970  -11.9470    0.0000 O   0  0  0  0  0  0  0  0  0  0  0  0
   16.6775  -13.0794    0.0000 O   0  0  0  0  0  0  0  0  0  0  0  0
   17.4925  -13.0794    0.0000 O   0  0  0  0  0  0  0  0  0  0  0  0
   16.8899  -22.2451    0.0000 C   0  0  0  0  0  0  0  0  0  0  0  0
   17.6056  -21.8375    0.0000 S   0  0  0  0  0  0  0  0  0  0  0  0
   18.3175  -22.2543    0.0000 O   0  0  0  0  0  0  0  0  0  0  0  0
   17.1981  -21.1219    0.0000 O   0  0  0  0  0  0  0  0  0  0  0  0
   18.0132  -21.1219    0.0000 O   0  0  0  0  0  0  0  0  0  0  0  0
   11.2189  -20.5288    0.0000 C   0  0  0  0  0  0  0  0  0  0  0  0
   10.5032  -20.9365    0.0000 S   0  0  0  0  0  0  0  0  0  0  0  0
    9.7913  -20.5197    0.0000 O   0  0  0  0  0  0  0  0  0  0  0  0
   10.9108  -21.6521    0.0000 O   0  0  0  0  0  0  0  0  0  0  0  0
   10.0958  -21.6521    0.0000 O   0  0  0  0  0  0  0  0  0  0  0  0
    5.6321  -15.6581    0.0000 C   0  0  0  0  0  0  0  0  0  0  0  0
    6.3467  -16.0705    0.0000 C   0  0  0  0  0  0  0  0  0  0  0  0
    6.3469  -16.8955    0.0000 C   0  0  0  0  0  0  0  0  0  0  0  0
    7.0614  -17.3077    0.0000 C   0  0  1  0  0  0  0  0  0  0  0  0
    7.0616  -18.1327    0.0000 C   0  0  0  0  0  0  0  0  0  0  0  0
    7.7758  -16.8952    0.0000 C   0  0  0  0  0  0  0  0  0  0  0  0
    7.7762  -18.5451    0.0000 R   0  0  0  0  0  0  0  0  0  0  0  0
   19.1938  -16.9617    0.0000 C   0  0  0  0  0  0  0  0  0  0  0  0
   19.9301  -15.7371    0.0000 C   0  0  0  0  0  0  0  0  0  0  0  0
   16.9368  -19.8040    0.0000 C   0  0  0  0  0  0  0  0  0  0  0  0
   18.3649  -19.8549    0.0000 C   0  0  0  0  0  0  0  0  0  0  0  0
  1  2  1  0  0  0  0
  2  3  1  0  0  0  0
  2  4  2  0  0  0  0
  5  3  1  1  0  0  0
  5  6  1  0  0  0  0
  6  7  1  0  0  0  0
  6  8  2  0  0  0  0
  5  9  1  0  0  0  0
  9 10  1  0  0  0  0
 10 11  1  0  0  0  0
 12  7  1  6  0  0  0
 12 13  1  0  0  0  0
 13 14  1  0  0  0  0
 13 15  2  0  0  0  0
 12 16  1  0  0  0  0
 16 17  1  0  0  0  0
 16 18  1  6  0  0  0
 19 14  1  1  0  0  0
 19 20  1  0  0  0  0
 20 21  1  0  0  0  0
 20 22  2  0  0  0  0
 19 23  1  0  0  0  0
 23 24  1  0  0  0  0
 24 25  1  0  0  0  0
 26 21  1  6  0  0  0
 26 27  1  0  0  0  0
 27 28  1  0  0  0  0
 27 29  2  0  0  0  0
 26 30  1  0  0  0  0
 31 28  1  1  0  0  0
 31 32  1  0  0  0  0
 32 33  1  0  0  0  0
 32 34  2  0  0  0  0
 31 35  1  0  0  0  0
 35 36  1  0  0  0  0
 36 37  1  0  0  0  0
 38 33  1  6  0  0  0
 38 39  1  0  0  0  0
 39 40  1  0  0  0  0
 39 41  2  0  0  0  0
 38 42  1  0  0  0  0
 42 43  1  0  0  0  0
 44 40  1  1  0  0  0
 44 45  1  0  0  0  0
 45 46  1  0  0  0  0
 45 47  2  0  0  0  0
 44 48  1  0  0  0  0
 48 49  1  0  0  0  0
 50 46  1  1  0  0  0
 50 51  1  0  0  0  0
 51 52  1  0  0  0  0
 51 53  2  0  0  0  0
 50 54  1  0  0  0  0
 54 55  1  0  0  0  0
 55 56  1  0  0  0  0
 57 52  1  1  0  0  0
 57 58  1  0  0  0  0
 58 59  1  0  0  0  0
 58 60  2  0  0  0  0
 57 61  1  0  0  0  0
 61 62  1  0  0  0  0
 62 63  1  0  0  0  0
 64 59  1  1  0  0  0
 64 65  1  0  0  0  0
 65 66  2  0  0  0  0
 65 67  1  0  0  0  0
 64 68  1  0  0  0  0
 68 69  1  0  0  0  0
 68 70  1  1  0  0  0
 30 71  1  0  0  0  0
 71 67  1  0  0  0  0
 72 73  1  0  0  0  0
 73 74  1  0  0  0  0
 73 75  2  0  0  0  0
 73 76  2  0  0  0  0
 72 11  1  0  0  0  0
 77 78  1  0  0  0  0
 78 79  1  0  0  0  0
 78 80  2  0  0  0  0
 78 81  2  0  0  0  0
 77 25  1  0  0  0  0
 82 83  1  0  0  0  0
 83 84  1  0  0  0  0
 83 85  2  0  0  0  0
 83 86  2  0  0  0  0
 82 37  1  0  0  0  0
 87 88  1  0  0  0  0
 88 89  1  0  0  0  0
 88 90  2  0  0  0  0
 88 91  2  0  0  0  0
 87 56  1  0  0  0  0
 92 93  1  0  0  0  0
 93 94  1  0  0  0  0
 93 95  2  0  0  0  0
 93 96  2  0  0  0  0
 92 63  1  0  0  0  0
  1 97  1  0  0  0  0
 97 98  1  0  0  0  0
 98 99  1  0  0  0  0
 99100  1  0  0  0  0
100101  1  0  0  0  0
100102  1  6  0  0  0
101103  1  0  0  0  0
 43104  1  0  0  0  0
 43105  1  0  0  0  0
 49106  1  0  0  0  0
 49107  1  0  0  0  0
M  END

>  <ACTIVITY>
5.00
$$$$
135928
doripenem
  Mrv0541 05041708502D          
null
 27 29  0  0  0  0            999 V2000
  -10.9249    4.2768    0.0000 C   0  0  0  0  0  0  0  0  0  0  0  0
  -10.1280    4.4904    0.0000 C   0  0  1  0  0  0  0  0  0  0  0  0
   -9.9145    5.2873    0.0000 O   0  0  0  0  0  0  0  0  0  0  0  0
   -9.5446    3.9070    0.0000 C   0  0  2  0  0  0  0  0  0  0  0  0
   -8.7196    3.9070    0.0000 C   0  0  1  0  0  0  0  0  0  0  0  0
   -7.9350    4.1619    0.0000 C   0  0  1  0  0  0  0  0  0  0  0  0
   -7.6801    4.9466    0.0000 C   0  0  0  0  0  0  0  0  0  0  0  0
   -7.4501    3.4945    0.0000 C   0  0  0  0  0  0  0  0  0  0  0  0
   -6.6251    3.4945    0.0000 S   0  0  0  0  0  0  0  0  0  0  0  0
   -6.2126    4.2090    0.0000 C   0  0  2  0  0  0  0  0  0  0  0  0
   -6.5481    4.9627    0.0000 C   0  0  0  0  0  0  0  0  0  0  0  0
   -5.9351    5.5147    0.0000 N   0  0  0  0  0  0  0  0  0  0  0  0
   -5.2206    5.1022    0.0000 C   0  0  1  0  0  0  0  0  0  0  0  0
   -5.3921    4.2952    0.0000 C   0  0  0  0  0  0  0  0  0  0  0  0
   -4.4669    5.4377    0.0000 C   0  0  0  0  0  0  0  0  0  0  0  0
   -3.7995    4.9528    0.0000 N   0  0  0  0  0  0  0  0  0  0  0  0
   -3.0458    5.2884    0.0000 S   0  0  0  0  0  0  0  0  0  0  0  0
   -7.9350    2.8271    0.0000 C   0  0  0  0  0  0  0  0  0  0  0  0
   -8.7196    3.0820    0.0000 N   0  0  0  0  0  0  0  0  0  0  0  0
   -9.5446    3.0820    0.0000 C   0  0  0  0  0  0  0  0  0  0  0  0
  -10.1280    2.4986    0.0000 O   0  0  0  0  0  0  0  0  0  0  0  0
   -7.6801    2.0425    0.0000 C   0  0  0  0  0  0  0  0  0  0  0  0
   -8.2321    1.4294    0.0000 O   0  0  0  0  0  0  0  0  0  0  0  0
   -6.8731    1.8709    0.0000 O   0  0  0  0  0  0  0  0  0  0  0  0
   -2.3313    4.8759    0.0000 N   0  0  0  0  0  0  0  0  0  0  0  0
   -3.4583    6.0029    0.0000 O   0  0  0  0  0  0  0  0  0  0  0  0
   -2.6333    6.0029    0.0000 O   0  0  0  0  0  0  0  0  0  0  0  0
  1  2  1  0  0  0  0
  2  3  1  1  0  0  0
  4  2  1  6  0  0  0
  4  5  1  0  0  0  0
  5  6  1  0  0  0  0
  6  7  1  1  0  0  0
  6  8  1  0  0  0  0
  8  9  1  0  0  0  0
 10  9  1  6  0  0  0
 10 11  1  0  0  0  0
 11 12  1  0  0  0  0
 12 13  1  0  0  0  0
 13 14  1  0  0  0  0
 10 14  1  0  0  0  0
 13 15  1  6  0  0  0
 15 16  1  0  0  0  0
 16 17  1  0  0  0  0
  8 18  2  0  0  0  0
 18 19  1  0  0  0  0
  5 19  1  1  0  0  0
 19 20  1  0  0  0  0
  4 20  1  0  0  0  0
 20 21  2  0  0  0  0
 18 22  1  0  0  0  0
 22 23  1  0  0  0  0
 22 24  2  0  0  0  0
 17 25  1  0  0  0  0
 26 17  2  0  0  0  0
 17 27  2  0  0  0  0
M  END

>  <ACTIVITY>
5.00
$$$$
31518

  Mrv0541 05041708502D          

 30 31  0  0  0  0            999 V2000
   20.5665   -8.1372    0.0000 O   0  0  0  0  0  0  0  0  0  0  0  0
   18.8957   -9.9024    0.0000 C   0  0  2  0  0  0  0  0  0  0  0  0
   15.0454   -8.7597    0.0000 C   0  0  1  0  0  0  0  0  0  0  0  0
   15.0454   -9.5844    0.0000 C   0  0  0  0  0  0  0  0  0  0  0  0
   15.8287   -9.5844    0.0000 N   0  0  0  0  0  0  0  0  0  0  0  0
   15.8287   -8.7597    0.0000 C   0  0  2  0  0  0  0  0  0  0  0  0
   16.6122   -9.8318    0.0000 C   0  0  0  0  0  0  0  0  0  0  0  0
   17.1070   -9.1721    0.0000 C   0  0  0  0  0  0  0  0  0  0  0  0
   16.6122   -8.5123    0.0000 C   0  0  2  0  0  0  0  0  0  0  0  0
   16.8596  -10.6152    0.0000 C   0  0  0  0  0  0  0  0  0  0  0  0
   17.6842  -10.6152    0.0000 O   0  0  0  0  0  0  0  0  0  0  0  0
   16.4060  -11.2750    0.0000 O   0  0  0  0  0  0  0  0  0  0  0  0
   15.8287   -7.9351    0.0000 H   0  0  0  0  0  0  0  0  0  0  0  0
   18.4740   -9.1721    0.0000 S   0  0  0  0  0  0  0  0  0  0  0  0
   16.8642   -7.7272    0.0000 C   0  0  0  0  0  0  0  0  0  0  0  0
   15.0454   -7.9351    0.0000 H   0  0  0  0  0  0  0  0  0  0  0  0
   14.3098   -8.3350    0.0000 C   0  0  1  0  0  0  0  0  0  0  0  0
   13.5741   -8.7597    0.0000 C   0  0  0  0  0  0  0  0  0  0  0  0
   14.3098  -10.0091    0.0000 O   0  0  0  0  0  0  0  0  0  0  0  0
   14.3100   -7.4763    0.0000 O   0  0  0  0  0  0  0  0  0  0  0  0
   18.6471  -10.7133    0.0000 C   0  0  0  0  0  0  0  0  0  0  0  0
   19.3415  -11.1995    0.0000 N   0  0  0  0  0  0  0  0  0  0  0  0
   20.0184  -10.6896    0.0000 C   0  0  1  0  0  0  0  0  0  0  0  0
   19.7426   -9.8880    0.0000 C   0  0  0  0  0  0  0  0  0  0  0  0
   20.8614  -10.6896    0.0000 C   0  0  0  0  0  0  0  0  0  0  0  0
   21.2788   -9.9673    0.0000 N   0  0  0  0  0  0  0  0  0  0  0  0
   22.1425   -9.9681    0.0000 S   0  0  0  0  0  0  0  0  0  0  0  0
   22.9855   -9.9681    0.0000 N   0  0  0  0  0  0  0  0  0  0  0  0
   22.1422  -10.7934    0.0000 O   0  0  0  0  0  0  0  0  0  0  0  0
   22.1429   -9.1075    0.0000 O   0  0  0  0  0  0  0  0  0  0  0  0
  3  4  1  0  0  0  0
  4  5  1  0  0  0  0
  5  6  1  0  0  0  0
  3  6  1  0  0  0  0
  5  7  1  0  0  0  0
  7  8  2  0  0  0  0
  8  9  1  0  0  0  0
  6  9  1  0  0  0  0
  7 10  1  0  0  0  0
 10 11  1  0  0  0  0
 10 12  2  0  0  0  0
  6 13  1  6  0  0  0
  8 14  1  0  0  0  0
  9 15  1  1  0  0  0
  3 16  1  1  0  0  0
  3 17  1  0  0  0  0
 17 18  1  0  0  0  0
  4 19  2  0  0  0  0
 17 20  1  1  0  0  0
  2 14  1  1  0  0  0
  2 21  1  0  0  0  0
 21 22  1  0  0  0  0
 22 23  1  0  0  0  0
 23 24  1  0  0  0  0
  2 24  1  0  0  0  0
 25 26  1  0  0  0  0
 26 27  1  0  0  0  0
 23 25  1  1  0  0  0
 27 28  1  0  0  0  0
 27 29  2  0  0  0  0
 27 30  2  0  0  0  0
M  END

>  <ACTIVITY>
5.00
$$$$
8232

  Mrv0541 05041708502D          

 37 40  0  0  1  0            999 V2000
   14.4461   -6.8427    0.0000 N   0  0  0  0  0  0  0  0  0  0  0  0
   15.2307   -5.7629    0.0000 S   0  0  0  0  0  0  0  0  0  0  0  0
   16.4301   -6.8427    0.0000 C   0  0  0  0  0  0  0  0  0  0  0  0
   15.7156   -6.4303    0.0000 C   0  0  0  0  0  0  0  0  0  0  0  0
   16.4301   -6.0178    0.0000 C   0  0  0  0  0  0  0  0  0  0  0  0
   15.2307   -7.0977    0.0000 C   0  0  2  0  0  0  0  0  0  0  0  0
   16.2926   -8.0538    0.0000 O   0  0  0  0  0  0  0  0  0  0  0  0
   15.4856   -7.8823    0.0000 C   0  0  0  0  0  0  0  0  0  0  0  0
   14.9336   -8.4954    0.0000 O   0  0  0  0  0  0  0  0  0  0  0  0
   13.6211   -6.0178    0.0000 C   0  0  2  0  0  0  0  0  0  0  0  0
   12.9067   -5.6053    0.0000 N   0  0  0  0  0  0  0  0  0  0  0  0
   12.1922   -6.0178    0.0000 C   0  0  0  0  0  0  0  0  0  0  0  0
   12.1922   -6.8427    0.0000 O   0  0  0  0  0  0  0  0  0  0  0  0
   11.4778   -5.6053    0.0000 C   0  0  1  0  0  0  0  0  0  0  0  0
   13.6211   -6.8427    0.0000 C   0  0  0  0  0  0  0  0  0  0  0  0
   13.0378   -7.4261    0.0000 O   0  0  0  0  0  0  0  0  0  0  0  0
   14.4461   -6.0178    0.0000 C   0  0  2  0  0  0  0  0  0  0  0  0
   14.4461   -5.1928    0.0000 H   0  0  0  0  0  0  0  0  0  0  0  0
   11.4779   -4.7803    0.0000 C   0  0  0  0  0  0  0  0  0  0  0  0
   10.7633   -6.0178    0.0000 N   0  0  0  0  0  0  0  0  0  0  0  0
   11.4779   -3.1303    0.0000 C   0  0  0  0  0  0  0  0  0  0  0  0
   10.7634   -3.5428    0.0000 C   0  0  0  0  0  0  0  0  0  0  0  0
   10.7634   -4.3678    0.0000 C   0  0  0  0  0  0  0  0  0  0  0  0
   12.1924   -4.3678    0.0000 C   0  0  0  0  0  0  0  0  0  0  0  0
   12.1924   -3.5428    0.0000 C   0  0  0  0  0  0  0  0  0  0  0  0
   10.0489   -5.6053    0.0000 C   0  0  0  0  0  0  0  0  0  0  0  0
   10.0489   -4.7803    0.0000 O   0  0  0  0  0  0  0  0  0  0  0  0
    9.3344   -6.0178    0.0000 N   0  0  0  0  0  0  0  0  0  0  0  0
    8.6199   -5.6053    0.0000 C   0  0  0  0  0  0  0  0  0  0  0  0
    7.9054   -6.0178    0.0000 C   0  0  0  0  0  0  0  0  0  0  0  0
    7.9054   -6.8428    0.0000 N   0  0  0  0  0  0  0  0  0  0  0  0
    8.6199   -7.2553    0.0000 C   0  0  0  0  0  0  0  0  0  0  0  0
    9.3344   -6.8428    0.0000 C   0  0  0  0  0  0  0  0  0  0  0  0
    8.6199   -4.7803    0.0000 O   0  0  0  0  0  0  0  0  0  0  0  0
    7.1910   -5.6053    0.0000 O   0  0  0  0  0  0  0  0  0  0  0  0
    7.1910   -7.2553    0.0000 C   0  0  0  0  0  0  0  0  0  0  0  0
    6.4765   -6.8428    0.0000 C   0  0  0  0  0  0  0  0  0  0  0  0
 17 10  1  0  0  0  0
 10 15  1  0  0  0  0
 15  1  1  0  0  0  0
  1  6  1  0  0  0  0
 17  1  1  0  0  0  0
  2 17  1  0  0  0  0
  2  4  1  0  0  0  0
  6  4  1  0  0  0  0
  4  3  1  0  0  0  0
  4  5  1  0  0  0  0
  6  8  1  6  0  0  0
  8  7  1  0  0  0  0
  8  9  2  0  0  0  0
 10 11  1  1  0  0  0
 11 12  1  0  0  0  0
 12 14  1  0  0  0  0
 12 13  2  0  0  0  0
 15 16  2  0  0  0  0
 17 18  1  6  0  0  0
 14 19  1  6  0  0  0
 14 20  1  0  0  0  0
 23 19  2  0  0  0  0
 19 24  1  0  0  0  0
 21 22  2  0  0  0  0
 22 23  1  0  0  0  0
 24 25  2  0  0  0  0
 21 25  1  0  0  0  0
 20 26  1  0  0  0  0
 26 27  2  0  0  0  0
 26 28  1  0  0  0  0
 33 28  1  0  0  0  0
 29 28  1  0  0  0  0
 29 30  1  0  0  0  0
 30 31  1  0  0  0  0
 31 32  1  0  0  0  0
 32 33  1  0  0  0  0
 29 34  2  0  0  0  0
 30 35  2  0  0  0  0
 31 36  1  0  0  0  0
 36 37  1  0  0  0  0
M  END

>  <ACTIVITY>
5.00
$$$$
8233

  Mrv0541 05041708502D          

 38 40  0  0  1  0            999 V2000
   14.4461   -6.8427    0.0000 N   0  0  0  0  0  0  0  0  0  0  0  0
   15.2307   -5.7629    0.0000 S   0  0  0  0  0  0  0  0  0  0  0  0
   16.4301   -6.8427    0.0000 C   0  0  0  0  0  0  0  0  0  0  0  0
   15.7156   -6.4303    0.0000 C   0  0  0  0  0  0  0  0  0  0  0  0
   16.4301   -6.0178    0.0000 C   0  0  0  0  0  0  0  0  0  0  0  0
   15.2307   -7.0977    0.0000 C   0  0  2  0  0  0  0  0  0  0  0  0
   16.2926   -8.0538    0.0000 O   0  5  0  0  0  0  0  0  0  0  0  0
   15.4856   -7.8823    0.0000 C   0  0  0  0  0  0  0  0  0  0  0  0
   14.9336   -8.4954    0.0000 O   0  0  0  0  0  0  0  0  0  0  0  0
   13.6211   -6.0178    0.0000 C   0  0  2  0  0  0  0  0  0  0  0  0
   12.9067   -5.6053    0.0000 N   0  0  0  0  0  0  0  0  0  0  0  0
   12.1922   -6.0178    0.0000 C   0  0  0  0  0  0  0  0  0  0  0  0
   12.1922   -6.8427    0.0000 O   0  0  0  0  0  0  0  0  0  0  0  0
   11.4778   -5.6053    0.0000 C   0  0  1  0  0  0  0  0  0  0  0  0
   13.6211   -6.8427    0.0000 C   0  0  0  0  0  0  0  0  0  0  0  0
   13.0378   -7.4261    0.0000 O   0  0  0  0  0  0  0  0  0  0  0  0
   14.4461   -6.0178    0.0000 C   0  0  2  0  0  0  0  0  0  0  0  0
   14.4461   -5.1928    0.0000 H   0  0  0  0  0  0  0  0  0  0  0  0
   11.4779   -4.7803    0.0000 C   0  0  0  0  0  0  0  0  0  0  0  0
   10.7633   -6.0178    0.0000 N   0  0  0  0  0  0  0  0  0  0  0  0
   11.4779   -3.1303    0.0000 C   0  0  0  0  0  0  0  0  0  0  0  0
   10.7634   -3.5428    0.0000 C   0  0  0  0  0  0  0  0  0  0  0  0
   10.7634   -4.3678    0.0000 C   0  0  0  0  0  0  0  0  0  0  0  0
   12.1924   -4.3678    0.0000 C   0  0  0  0  0  0  0  0  0  0  0  0
   12.1924   -3.5428    0.0000 C   0  0  0  0  0  0  0  0  0  0  0  0
   10.0489   -5.6053    0.0000 C   0  0  0  0  0  0  0  0  0  0  0  0
   10.0489   -4.7803    0.0000 O   0  0  0  0  0  0  0  0  0  0  0  0
    9.3344   -6.0178    0.0000 N   0  0  0  0  0  0  0  0  0  0  0  0
    8.6199   -5.6053    0.0000 C   0  0  0  0  0  0  0  0  0  0  0  0
    7.9054   -6.0178    0.0000 C   0  0  0  0  0  0  0  0  0  0  0  0
    7.9054   -6.8428    0.0000 N   0  0  0  0  0  0  0  0  0  0  0  0
    8.6199   -7.2553    0.0000 C   0  0  0  0  0  0  0  0  0  0  0  0
    9.3344   -6.8428    0.0000 C   0  0  0  0  0  0  0  0  0  0  0  0
    8.6199   -4.7803    0.0000 O   0  0  0  0  0  0  0  0  0  0  0  0
    7.1910   -5.6053    0.0000 O   0  0  0  0  0  0  0  0  0  0  0  0
    7.1910   -7.2553    0.0000 C   0  0  0  0  0  0  0  0  0  0  0  0
    6.4765   -6.8428    0.0000 C   0  0  0  0  0  0  0  0  0  0  0  0
   15.8774   -9.2342    0.0000 Na  0  3  0  0  0  0  0  0  0  0  0  0
 17 10  1  0  0  0  0
 10 15  1  0  0  0  0
 15  1  1  0  0  0  0
  1  6  1  0  0  0  0
 17  1  1  0  0  0  0
  2 17  1  0  0  0  0
  2  4  1  0  0  0  0
  6  4  1  0  0  0  0
  4  3  1  0  0  0  0
  4  5  1  0  0  0  0
  6  8  1  6  0  0  0
  8  7  1  0  0  0  0
  8  9  2  0  0  0  0
 10 11  1  1  0  0  0
 11 12  1  0  0  0  0
 12 14  1  0  0  0  0
 12 13  2  0  0  0  0
 15 16  2  0  0  0  0
 17 18  1  6  0  0  0
 14 19  1  6  0  0  0
 14 20  1  0  0  0  0
 23 19  2  0  0  0  0
 19 24  1  0  0  0  0
 21 22  2  0  0  0  0
 22 23  1  0  0  0  0
 24 25  2  0  0  0  0
 21 25  1  0  0  0  0
 20 26  1  0  0  0  0
 26 27  2  0  0  0  0
 26 28  1  0  0  0  0
 33 28  1  0  0  0  0
 29 28  1  0  0  0  0
 29 30  1  0  0  0  0
 30 31  1  0  0  0  0
 31 32  1  0  0  0  0
 32 33  1  0  0  0  0
 29 34  2  0  0  0  0
 30 35  2  0  0  0  0
 31 36  1  0  0  0  0
 36 37  1  0  0  0  0
M  CHG  2   7  -1  38   1
M  END

>  <ACTIVITY>
5.00
$$$$
52433

  Mrv0541 05041708502D          

 37 40  0  0  1  0            999 V2000
   14.4461   -6.8427    0.0000 N   0  0  0  0  0  0  0  0  0  0  0  0
   15.2307   -5.7629    0.0000 S   0  0  0  0  0  0  0  0  0  0  0  0
   16.4301   -6.8427    0.0000 C   0  0  0  0  0  0  0  0  0  0  0  0
   15.7156   -6.4303    0.0000 C   0  0  0  0  0  0  0  0  0  0  0  0
   16.4301   -6.0178    0.0000 C   0  0  0  0  0  0  0  0  0  0  0  0
   15.2307   -7.0977    0.0000 C   0  0  2  0  0  0  0  0  0  0  0  0
   16.2926   -8.0538    0.0000 O   0  5  0  0  0  0  0  0  0  0  0  0
   15.4856   -7.8823    0.0000 C   0  0  0  0  0  0  0  0  0  0  0  0
   14.9336   -8.4954    0.0000 O   0  0  0  0  0  0  0  0  0  0  0  0
   13.6211   -6.0178    0.0000 C   0  0  2  0  0  0  0  0  0  0  0  0
   12.9067   -5.6053    0.0000 N   0  0  0  0  0  0  0  0  0  0  0  0
   12.1922   -6.0178    0.0000 C   0  0  0  0  0  0  0  0  0  0  0  0
   12.1922   -6.8427    0.0000 O   0  0  0  0  0  0  0  0  0  0  0  0
   11.4778   -5.6053    0.0000 C   0  0  1  0  0  0  0  0  0  0  0  0
   13.6211   -6.8427    0.0000 C   0  0  0  0  0  0  0  0  0  0  0  0
   13.0378   -7.4261    0.0000 O   0  0  0  0  0  0  0  0  0  0  0  0
   14.4461   -6.0178    0.0000 C   0  0  2  0  0  0  0  0  0  0  0  0
   14.4461   -5.1928    0.0000 H   0  0  0  0  0  0  0  0  0  0  0  0
   11.4779   -4.7803    0.0000 C   0  0  0  0  0  0  0  0  0  0  0  0
   10.7633   -6.0178    0.0000 N   0  0  0  0  0  0  0  0  0  0  0  0
   11.4779   -3.1303    0.0000 C   0  0  0  0  0  0  0  0  0  0  0  0
   10.7634   -3.5428    0.0000 C   0  0  0  0  0  0  0  0  0  0  0  0
   10.7634   -4.3678    0.0000 C   0  0  0  0  0  0  0  0  0  0  0  0
   12.1924   -4.3678    0.0000 C   0  0  0  0  0  0  0  0  0  0  0  0
   12.1924   -3.5428    0.0000 C   0  0  0  0  0  0  0  0  0  0  0  0
   10.0489   -5.6053    0.0000 C   0  0  0  0  0  0  0  0  0  0  0  0
   10.0489   -4.7803    0.0000 O   0  0  0  0  0  0  0  0  0  0  0  0
    9.3344   -6.0178    0.0000 N   0  0  0  0  0  0  0  0  0  0  0  0
    8.6199   -5.6053    0.0000 C   0  0  0  0  0  0  0  0  0  0  0  0
    7.9054   -6.0178    0.0000 C   0  0  0  0  0  0  0  0  0  0  0  0
    7.9054   -6.8428    0.0000 N   0  0  0  0  0  0  0  0  0  0  0  0
    8.6199   -7.2553    0.0000 C   0  0  0  0  0  0  0  0  0  0  0  0
    9.3344   -6.8428    0.0000 C   0  0  0  0  0  0  0  0  0  0  0  0
    8.6199   -4.7803    0.0000 O   0  0  0  0  0  0  0  0  0  0  0  0
    7.1910   -5.6053    0.0000 O   0  0  0  0  0  0  0  0  0  0  0  0
    7.1910   -7.2553    0.0000 C   0  0  0  0  0  0  0  0  0  0  0  0
    6.4765   -6.8428    0.0000 C   0  0  0  0  0  0  0  0  0  0  0  0
 17 10  1  0  0  0  0
 10 15  1  0  0  0  0
 15  1  1  0  0  0  0
  1  6  1  0  0  0  0
 17  1  1  0  0  0  0
  2 17  1  0  0  0  0
  2  4  1  0  0  0  0
  6  4  1  0  0  0  0
  4  3  1  0  0  0  0
  4  5  1  0  0  0  0
  6  8  1  6  0  0  0
  8  7  1  0  0  0  0
  8  9  2  0  0  0  0
 10 11  1  1  0  0  0
 11 12  1  0  0  0  0
 12 14  1  0  0  0  0
 12 13  2  0  0  0  0
 15 16  2  0  0  0  0
 17 18  1  6  0  0  0
 14 19  1  6  0  0  0
 14 20  1  0  0  0  0
 23 19  2  0  0  0  0
 19 24  1  0  0  0  0
 21 22  2  0  0  0  0
 22 23  1  0  0  0  0
 24 25  2  0  0  0  0
 21 25  1  0  0  0  0
 20 26  1  0  0  0  0
 26 27  2  0  0  0  0
 26 28  1  0  0  0  0
 33 28  1  0  0  0  0
 29 28  1  0  0  0  0
 29 30  1  0  0  0  0
 30 31  1  0  0  0  0
 31 32  1  0  0  0  0
 32 33  1  0  0  0  0
 29 34  2  0  0  0  0
 30 35  2  0  0  0  0
 31 36  1  0  0  0  0
 36 37  1  0  0  0  0
M  CHG  1   7  -1
M  END

>  <ACTIVITY>
5.00
$$$$
8309

  Mrv0541 05041708502D          

 85 86  0  0  1  0            999 V2000
   18.8661  -12.2241    0.0000 N   0  0  0  0  0  0  0  0  0  0  0  0
   18.1865   -8.4482    0.0000 C   0  0  1  0  0  0  0  0  0  0  0  0
   18.8967   -8.0334    0.0000 C   0  0  0  0  0  0  0  0  0  0  0  0
   18.8919   -7.2088    0.0000 O   0  0  0  0  0  0  0  0  0  0  0  0
   17.4693   -8.0373    0.0000 N   0  0  0  0  0  0  0  0  0  0  0  0
   22.4336  -11.8631    0.0000 C   0  0  1  0  0  0  0  0  0  0  0  0
   21.0067  -11.8554    0.0000 N   0  0  0  0  0  0  0  0  0  0  0  0
   20.2908  -12.2639    0.0000 C   0  0  2  0  0  0  0  0  0  0  0  0
   19.5820  -11.8477    0.0000 C   0  0  0  0  0  0  0  0  0  0  0  0
   19.5792  -11.1612    0.0000 O   0  0  0  0  0  0  0  0  0  0  0  0
   21.7200  -12.2675    0.0000 C   0  0  0  0  0  0  0  0  0  0  0  0
   21.7179  -13.0965    0.0000 O   0  0  0  0  0  0  0  0  0  0  0  0
   22.4284  -11.0342    0.0000 N   0  0  0  0  0  0  0  0  0  0  0  0
   23.1447  -10.6154    0.0000 C   0  0  0  0  0  0  0  0  0  0  0  0
   23.8616  -11.0255    0.0000 O   0  0  0  0  0  0  0  0  0  0  0  0
   23.1137   -8.6078    0.0000 C   0  0  1  0  0  0  0  0  0  0  0  0
   19.6135   -8.4437    0.0000 N   0  0  0  0  0  0  0  0  0  0  0  0
   20.3301   -8.0249    0.0000 C   0  0  1  0  0  0  0  0  0  0  0  0
   21.0425   -8.4394    0.0000 C   0  0  0  0  0  0  0  0  0  0  0  0
   21.0210   -9.2641    0.0000 O   0  0  0  0  0  0  0  0  0  0  0  0
   21.7549   -8.0205    0.0000 N   0  0  0  0  0  0  0  0  0  0  0  0
   23.7977   -8.1488    0.0000 C   0  0  0  0  0  0  0  0  0  0  0  0
   24.5392   -8.5126    0.0000 C   0  0  0  0  0  0  0  0  0  0  0  0
   25.2275   -8.0536    0.0000 C   0  0  0  0  0  0  0  0  0  0  0  0
   24.5538   -9.3353    0.0000 C   0  0  0  0  0  0  0  0  0  0  0  0
   20.3283   -7.2003    0.0000 C   0  0  0  0  0  0  0  0  0  0  0  0
   21.0418   -6.7842    0.0000 C   0  0  0  0  0  0  0  0  0  0  0  0
   21.7526   -7.1990    0.0000 C   0  0  0  0  0  0  0  0  0  0  0  0
   22.4662   -6.7828    0.0000 C   0  0  0  0  0  0  0  0  0  0  0  0
   22.4643   -5.9582    0.0000 C   0  0  0  0  0  0  0  0  0  0  0  0
   21.7489   -5.5454    0.0000 C   0  0  0  0  0  0  0  0  0  0  0  0
   21.0354   -5.9614    0.0000 C   0  0  0  0  0  0  0  0  0  0  0  0
   23.1525  -12.2730    0.0000 C   0  0  0  0  0  0  0  0  0  0  0  0
   23.1528  -13.1020    0.0000 C   0  0  0  0  0  0  0  0  0  0  0  0
   23.8673  -13.5119    0.0000 N   0  0  0  0  0  0  0  0  0  0  0  0
   20.2857  -13.0929    0.0000 C   0  0  0  0  0  0  0  0  0  0  0  0
   19.5688  -13.4985    0.0000 C   0  0  0  0  0  0  0  0  0  0  0  0
   19.5636  -14.3275    0.0000 N   0  0  0  0  0  0  0  0  0  0  0  0
   18.1889   -9.2729    0.0000 C   0  0  0  0  0  0  0  0  0  0  0  0
   18.9046   -9.6852    0.0000 C   0  0  0  0  0  0  0  0  0  0  0  0
   19.6265   -9.3119    0.0000 N   0  0  0  0  0  0  0  0  0  0  0  0
   18.1651  -11.7802    0.0000 C   0  0  1  0  0  0  0  0  0  0  0  0
   18.1567  -10.9135    0.0000 C   0  0  1  0  0  0  0  0  0  0  0  0
   17.4341  -12.1646    0.0000 C   0  0  0  0  0  0  0  0  0  0  0  0
   16.7374  -11.7251    0.0000 N   0  0  0  0  0  0  0  0  0  0  0  0
   17.4469  -12.9929    0.0000 O   0  0  0  0  0  0  0  0  0  0  0  0
   16.7718  -10.9011    0.0000 C   0  0  0  0  0  0  0  0  0  0  0  0
   18.8876  -10.5290    0.0000 C   0  0  0  0  0  0  0  0  0  0  0  0
   17.4599  -10.4738    0.0000 O   0  0  0  0  0  0  0  0  0  0  0  0
   16.0708  -10.4572    0.0000 C   0  0  0  0  0  0  0  0  0  0  0  0
   16.5179   -8.0336    0.0000 C   0  0  0  0  0  0  0  0  0  0  0  0
   16.1496   -7.3174    0.0000 O   0  0  0  0  0  0  0  0  0  0  0  0
   16.1003   -8.7894    0.0000 C   0  0  1  0  0  0  0  0  0  0  0  0
   15.3651   -8.3531    0.0000 N   0  0  0  0  0  0  0  0  0  0  0  0
   14.6527   -8.7675    0.0000 C   0  0  0  0  0  0  0  0  0  0  0  0
   13.9403   -8.3531    0.0000 C   0  0  1  0  0  0  0  0  0  0  0  0
   14.6527   -9.5923    0.0000 O   0  0  0  0  0  0  0  0  0  0  0  0
   13.2253   -8.7667    0.0000 N   0  0  0  0  0  0  0  0  0  0  0  0
   12.5114   -8.3513    0.0000 C   0  0  0  0  0  0  0  0  0  0  0  0
   13.9413   -7.5285    0.0000 C   0  0  0  0  0  0  0  0  0  0  0  0
   14.6562   -7.1191    0.0000 C   0  0  0  0  0  0  0  0  0  0  0  0
   14.6572   -6.2902    0.0000 N   0  0  0  0  0  0  0  0  0  0  0  0
   12.5124   -7.5267    0.0000 O   0  0  0  0  0  0  0  0  0  0  0  0
   11.7965   -8.7650    0.0000 C   0  0  1  0  0  0  0  0  0  0  0  0
   11.0782   -8.3496    0.0000 N   0  0  0  0  0  0  0  0  0  0  0  0
   11.7955   -9.8038    0.0000 C   0  0  2  0  0  0  0  0  0  0  0  0
   12.5094  -10.2192    0.0000 O   0  0  0  0  0  0  0  0  0  0  0  0
   11.0761  -10.2173    0.0000 C   0  0  0  0  0  0  0  0  0  0  0  0
   10.3634   -8.7632    0.0000 C   0  0  0  0  0  0  0  0  0  0  0  0
    9.6494   -8.3522    0.0000 C   0  0  1  0  0  0  0  0  0  0  0  0
   10.3623   -9.5878    0.0000 O   0  0  0  0  0  0  0  0  0  0  0  0
    8.9344   -8.7614    0.0000 N   0  0  0  0  0  0  0  0  0  0  0  0
    8.2205   -8.3504    0.0000 C   0  0  0  0  0  0  0  0  0  0  0  0
    7.5056   -8.7596    0.0000 C   0  0  0  0  0  0  0  0  0  0  0  0
    9.6505   -7.5232    0.0000 C   0  0  0  0  0  0  0  0  0  0  0  0
   10.3653   -7.1139    0.0000 C   0  0  0  0  0  0  0  0  0  0  0  0
   10.3664   -6.2849    0.0000 N   0  0  0  0  0  0  0  0  0  0  0  0
    8.2215   -7.5214    0.0000 O   0  0  0  0  0  0  0  0  0  0  0  0
    6.7873   -8.3485    0.0000 C   0  0  0  0  0  0  0  0  0  0  0  0
    6.0724   -8.7578    0.0000 C   0  0  0  0  0  0  0  0  0  0  0  0
    5.3585   -8.3468    0.0000 C   0  0  0  0  0  0  0  0  0  0  0  0
    4.6435   -8.7560    0.0000 C   0  0  1  0  0  0  0  0  0  0  0  0
    3.9296   -8.3450    0.0000 C   0  0  0  0  0  0  0  0  0  0  0  0
    4.6425   -9.5807    0.0000 C   0  0  0  0  0  0  0  0  0  0  0  0
    3.2136   -8.7549    0.0000 C   0  0  0  0  0  0  0  0  0  0  0  0
  2  5  1  0  0  0  0
 42 43  1  0  0  0  0
 22 23  1  0  0  0  0
 42 44  1  0  0  0  0
  6 13  1  0  0  0  0
 44 45  1  0  0  0  0
 23 24  1  0  0  0  0
 44 46  2  0  0  0  0
  3  4  2  0  0  0  0
 45 47  1  0  0  0  0
 23 25  1  0  0  0  0
 43 48  1  0  0  0  0
 43 49  1  6  0  0  0
 13 14  1  0  0  0  0
 18 26  1  6  0  0  0
 47 50  1  0  0  0  0
 53 50  1  0  0  0  0
  7  8  1  0  0  0  0
  5 51  1  0  0  0  0
 26 27  1  0  0  0  0
 51 52  2  0  0  0  0
 14 15  2  0  0  0  0
 51 53  1  0  0  0  0
  8  9  1  0  0  0  0
 53 54  1  6  0  0  0
  9 10  2  0  0  0  0
 54 55  1  0  0  0  0
  3  2  1  0  0  0  0
 55 56  1  0  0  0  0
  7 11  1  0  0  0  0
 55 57  2  0  0  0  0
 27 28  2  0  0  0  0
 56 58  1  0  0  0  0
 28 29  1  0  0  0  0
 58 59  1  0  0  0  0
 29 30  2  0  0  0  0
 56 60  1  1  0  0  0
 30 31  1  0  0  0  0
 60 61  1  0  0  0  0
 31 32  2  0  0  0  0
 61 62  1  0  0  0  0
 32 27  1  0  0  0  0
 59 63  2  0  0  0  0
 59 64  1  0  0  0  0
  6 33  1  1  0  0  0
 64 65  1  6  0  0  0
 11 12  2  0  0  0  0
 64 66  1  0  0  0  0
 33 34  1  0  0  0  0
 66 67  1  6  0  0  0
 18 19  1  0  0  0  0
 66 68  1  0  0  0  0
 34 35  1  0  0  0  0
 65 69  1  0  0  0  0
 19 20  2  0  0  0  0
 69 70  1  0  0  0  0
  8 36  1  1  0  0  0
 69 71  2  0  0  0  0
 19 21  1  0  0  0  0
 70 72  1  0  0  0  0
 36 37  1  0  0  0  0
 72 73  1  0  0  0  0
 17 18  1  0  0  0  0
 73 74  1  0  0  0  0
 37 38  1  0  0  0  0
 70 75  1  1  0  0  0
 17  3  1  0  0  0  0
 75 76  1  0  0  0  0
  1  9  1  0  0  0  0
 76 77  1  0  0  0  0
 21 16  1  0  0  0  0
 73 78  2  0  0  0  0
  2 39  1  6  0  0  0
 74 79  1  0  0  0  0
 14 16  1  0  0  0  0
 79 80  1  0  0  0  0
 39 40  1  0  0  0  0
 80 81  1  0  0  0  0
 11  6  1  0  0  0  0
 81 82  1  0  0  0  0
 40 41  1  0  0  0  0
 82 83  1  0  0  0  0
 16 22  1  1  0  0  0
 82 84  1  6  0  0  0
 42  1  1  6  0  0  0
 83 85  1  0  0  0  0
M  END

>  <ACTIVITY>
5.00
$$$$
27560

  Mrv0541 05041708502D          

  1  0  0  0  0  0            999 V2000
    0.0000    0.0000    0.0000 B   0  0  0  0  0 15  0  0  0  0  0  0
M  END

>  <ACTIVITY>
5.00
$$$$
8310
 
  Mrv0541 05041708502D          
 
 90 90  0  0  1  0            999 V2000
   24.1457  -12.5588    0.0000 N   0  0  0  0  0  0  0  0  0  0  0  0
   23.4669   -9.1289    0.0000 C   0  0  1  0  0  0  0  0  0  0  0  0
   24.1763   -8.7145    0.0000 C   0  0  0  0  0  0  0  0  0  0  0  0
   24.2141   -7.8906    0.0000 O   0  0  0  0  0  0  0  0  0  0  0  0
   22.7503   -8.7183    0.0000 N   0  0  0  0  0  0  0  0  0  0  0  0
   27.7099  -12.1981    0.0000 C   0  0  1  0  0  0  0  0  0  0  0  0
   26.2844  -12.1904    0.0000 N   0  0  0  0  0  0  0  0  0  0  0  0
   25.5692  -12.5985    0.0000 C   0  0  2  0  0  0  0  0  0  0  0  0
   24.8609  -12.1827    0.0000 C   0  0  0  0  0  0  0  0  0  0  0  0
   24.8581  -11.4968    0.0000 O   0  0  0  0  0  0  0  0  0  0  0  0
   26.9971  -12.6021    0.0000 C   0  0  0  0  0  0  0  0  0  0  0  0
   26.9948  -13.4304    0.0000 O   0  0  0  0  0  0  0  0  0  0  0  0
   27.7049  -11.3701    0.0000 N   0  0  0  0  0  0  0  0  0  0  0  0
   28.4203  -10.9516    0.0000 C   0  0  0  0  0  0  0  0  0  0  0  0
   29.1367  -11.3612    0.0000 O   0  0  0  0  0  0  0  0  0  0  0  0
   28.4322   -9.2883    0.0000 C   0  0  1  0  0  0  0  0  0  0  0  0
   24.8925   -9.1245    0.0000 N   0  0  0  0  0  0  0  0  0  0  0  0
   25.6085   -8.7060    0.0000 C   0  0  1  0  0  0  0  0  0  0  0  0
   26.3202   -9.1202    0.0000 C   0  0  0  0  0  0  0  0  0  0  0  0
   26.3415   -9.9440    0.0000 O   0  0  0  0  0  0  0  0  0  0  0  0
   27.0320   -8.7017    0.0000 N   0  0  0  0  0  0  0  0  0  0  0  0
   29.0728   -8.8298    0.0000 C   0  0  0  0  0  0  0  0  0  0  0  0
   29.8136   -9.1933    0.0000 C   0  0  0  0  0  0  0  0  0  0  0  0
   30.5013   -8.7346    0.0000 C   0  0  0  0  0  0  0  0  0  0  0  0
   29.8280  -10.0151    0.0000 C   0  0  0  0  0  0  0  0  0  0  0  0
   25.6067   -7.8821    0.0000 C   0  0  0  0  0  0  0  0  0  0  0  0
   26.3194   -7.4664    0.0000 C   0  0  0  0  0  0  0  0  0  0  0  0
   27.0297   -7.8808    0.0000 C   0  0  0  0  0  0  0  0  0  0  0  0
   27.7425   -7.4651    0.0000 C   0  0  0  0  0  0  0  0  0  0  0  0
   27.7406   -6.6411    0.0000 C   0  0  0  0  0  0  0  0  0  0  0  0
   27.0259   -6.2286    0.0000 C   0  0  0  0  0  0  0  0  0  0  0  0
   26.3132   -6.6445    0.0000 C   0  0  0  0  0  0  0  0  0  0  0  0
   28.4282  -12.6077    0.0000 C   0  0  0  0  0  0  0  0  0  0  0  0
   28.4284  -13.4359    0.0000 C   0  0  0  0  0  0  0  0  0  0  0  0
   29.1423  -13.8455    0.0000 N   0  0  0  0  0  0  0  0  0  0  0  0
   25.5640  -13.4267    0.0000 C   0  0  0  0  0  0  0  0  0  0  0  0
   24.8477  -13.8320    0.0000 C   0  0  0  0  0  0  0  0  0  0  0  0
   24.8426  -14.6602    0.0000 N   0  0  0  0  0  0  0  0  0  0  0  0
   23.4693   -9.9527    0.0000 C   0  0  0  0  0  0  0  0  0  0  0  0
   24.1842  -10.3648    0.0000 C   0  0  0  0  0  0  0  0  0  0  0  0
   24.9054   -9.9918    0.0000 N   0  0  0  0  0  0  0  0  0  0  0  0
   23.4454  -12.1154    0.0000 C   0  0  1  0  0  0  0  0  0  0  0  0
   23.4798  -11.1637    0.0000 C   0  0  1  0  0  0  0  0  0  0  0  0
   22.7152  -12.4993    0.0000 C   0  0  0  0  0  0  0  0  0  0  0  0
   22.0619  -12.0602    0.0000 N   0  0  0  0  0  0  0  0  0  0  0  0
   22.6853  -13.3268    0.0000 O   0  0  0  0  0  0  0  0  0  0  0  0
   22.0534  -11.2370    0.0000 C   0  0  0  0  0  0  0  0  0  0  0  0
   24.2101  -10.7797    0.0000 C   0  0  0  0  0  0  0  0  0  0  0  0
   22.7837  -10.7246    0.0000 O   0  0  0  0  0  0  0  0  0  0  0  0
   21.3531  -10.7936    0.0000 C   0  0  0  0  0  0  0  0  0  0  0  0
   21.7996   -8.7146    0.0000 C   0  0  0  0  0  0  0  0  0  0  0  0
   21.4318   -7.9991    0.0000 O   0  0  0  0  0  0  0  0  0  0  0  0
   21.3825   -9.4697    0.0000 C   0  0  1  0  0  0  0  0  0  0  0  0
   20.6479   -9.0339    0.0000 N   0  0  0  0  0  0  0  0  0  0  0  0
   19.9362   -9.4480    0.0000 C   0  0  0  0  0  0  0  0  0  0  0  0
   19.2244   -9.0339    0.0000 C   0  0  1  0  0  0  0  0  0  0  0  0
   19.9362  -10.2718    0.0000 O   0  0  0  0  0  0  0  0  0  0  0  0
   18.5102   -9.4471    0.0000 N   0  0  0  0  0  0  0  0  0  0  0  0
   17.7970   -9.0322    0.0000 C   0  0  0  0  0  0  0  0  0  0  0  0
   19.2255   -8.2099    0.0000 C   0  0  0  0  0  0  0  0  0  0  0  0
   19.9399   -7.8011    0.0000 C   0  0  0  0  0  0  0  0  0  0  0  0
   19.9408   -6.9729    0.0000 N   0  0  0  0  0  0  0  0  0  0  0  0
   17.7979   -8.2082    0.0000 O   0  0  0  0  0  0  0  0  0  0  0  0
   17.0827   -9.4453    0.0000 C   0  0  1  0  0  0  0  0  0  0  0  0
   16.3652   -9.0303    0.0000 N   0  0  0  0  0  0  0  0  0  0  0  0
   17.0816  -10.4832    0.0000 C   0  0  2  0  0  0  0  0  0  0  0  0
   17.7949  -10.8982    0.0000 O   0  0  0  0  0  0  0  0  0  0  0  0
   16.3630  -10.8964    0.0000 C   0  0  0  0  0  0  0  0  0  0  0  0
   15.6508   -9.4436    0.0000 C   0  0  0  0  0  0  0  0  0  0  0  0
   14.9375   -9.0329    0.0000 C   0  0  1  0  0  0  0  0  0  0  0  0
   15.6497  -10.2674    0.0000 O   0  0  0  0  0  0  0  0  0  0  0  0
   14.2232   -9.4418    0.0000 N   0  0  0  0  0  0  0  0  0  0  0  0
   13.5100   -9.0311    0.0000 C   0  0  0  0  0  0  0  0  0  0  0  0
   12.7957   -9.4400    0.0000 C   0  0  0  0  0  0  0  0  0  0  0  0
   14.9386   -8.2047    0.0000 C   0  0  0  0  0  0  0  0  0  0  0  0
   15.6529   -7.7958    0.0000 C   0  0  0  0  0  0  0  0  0  0  0  0
   15.6539   -6.9676    0.0000 N   0  0  0  0  0  0  0  0  0  0  0  0
   13.5111   -8.2029    0.0000 O   0  0  0  0  0  0  0  0  0  0  0  0
   12.0781   -9.0294    0.0000 C   0  0  0  0  0  0  0  0  0  0  0  0
   11.3639   -9.4383    0.0000 C   0  0  0  0  0  0  0  0  0  0  0  0
   10.6506   -9.0275    0.0000 C   0  0  0  0  0  0  0  0  0  0  0  0
    9.9364   -9.4364    0.0000 C   0  0  0  0  0  0  0  0  0  0  0  0
    9.2231   -9.0258    0.0000 C   0  0  0  0  0  0  0  0  0  0  0  0
    9.9353  -10.2604    0.0000 C   0  0  0  0  0  0  0  0  0  0  0  0
    8.5088   -9.4346    0.0000 R   0  0  0  0  0  0  0  0  0  0  0  0
   13.3809  -13.0471    0.0000 S   0  0  0  0  0  0  0  0  0  0  0  0
   12.5234  -13.0471    0.0000 O   0  0  0  0  0  0  0  0  0  0  0  0
   14.2384  -13.0471    0.0000 O   0  0  0  0  0  0  0  0  0  0  0  0
   13.3776  -12.1860    0.0000 O   0  0  0  0  0  0  0  0  0  0  0  0
   13.3776  -13.9045    0.0000 O   0  0  0  0  0  0  0  0  0  0  0  0
  6 13  1  0  0  0  0
 43 48  1  0  0  0  0
 43 49  1  6  0  0  0
 23 25  1  0  0  0  0
 47 50  1  0  0  0  0
 53 50  1  6  0  0  0
 18 26  1  6  0  0  0
  5 51  1  0  0  0  0
 13 14  1  0  0  0  0
 51 52  2  0  0  0  0
 26 27  1  0  0  0  0
 51 53  1  0  0  0  0
  2  5  1  0  0  0  0
 53 54  1  0  0  0  0
 14 15  2  0  0  0  0
 54 55  1  0  0  0  0
  7  8  1  0  0  0  0
 55 56  1  0  0  0  0
  8  9  1  0  0  0  0
 55 57  2  0  0  0  0
  9 10  2  0  0  0  0
 56 58  1  0  0  0  0
 27 28  2  0  0  0  0
 58 59  1  0  0  0  0
 28 29  1  0  0  0  0
 56 60  1  1  0  0  0
 29 30  2  0  0  0  0
 60 61  1  0  0  0  0
 30 31  1  0  0  0  0
 61 62  1  0  0  0  0
 31 32  2  0  0  0  0
 59 63  2  0  0  0  0
 32 27  1  0  0  0  0
 59 64  1  0  0  0  0
 64 65  1  0  0  0  0
  6 33  1  1  0  0  0
 64 66  1  6  0  0  0
  7 11  1  0  0  0  0
 66 67  1  6  0  0  0
 33 34  1  0  0  0  0
 66 68  1  0  0  0  0
  3  4  2  0  0  0  0
 65 69  1  0  0  0  0
 34 35  1  0  0  0  0
 69 70  1  0  0  0  0
 18 19  1  0  0  0  0
 69 71  2  0  0  0  0
  8 36  1  1  0  0  0
 70 72  1  0  0  0  0
 19 20  2  0  0  0  0
 72 73  1  0  0  0  0
 36 37  1  0  0  0  0
 73 74  1  0  0  0  0
 19 21  1  0  0  0  0
 70 75  1  1  0  0  0
 37 38  1  0  0  0  0
 75 76  1  0  0  0  0
 17  3  1  0  0  0  0
 76 77  1  0  0  0  0
  1  9  1  0  0  0  0
 73 78  2  0  0  0  0
 17 18  1  0  0  0  0
 74 79  1  0  0  0  0
  2 39  1  6  0  0  0
 79 80  1  0  0  0  0
 21 16  1  0  0  0  0
 80 81  1  0  0  0  0
 39 40  1  0  0  0  0
 81 82  1  0  0  0  0
 14 16  1  0  0  0  0
 82 83  1  0  0  0  0
 40 41  1  0  0  0  0
 82 84  1  0  0  0  0
 11 12  2  0  0  0  0
 83 85  1  0  0  0  0
  1 42  1  0  0  0  0
 16 22  1  1  0  0  0
 42 43  1  6  0  0  0
 11  6  1  0  0  0  0
 42 44  1  0  0  0  0
 22 23  1  0  0  0  0
 44 45  1  0  0  0  0
  3  2  1  0  0  0  0
 44 46  2  0  0  0  0
 23 24  1  0  0  0  0
 45 47  1  0  0  0  0
 86 87  1  0  0  0  0
 86 88  1  0  0  0  0
 86 89  2  0  0  0  0
 86 90  2  0  0  0  0
M  STY  1   1 SRU
M  SCN  1   1 HT 
M  SAL   1  5  86  87  88  89  90
M  SDI   1  4   11.6722  -14.1430   11.6722  -11.7574
M  SDI   1  4   14.9950  -11.7574   14.9950  -14.1430
M  SMT   1 x
M  END

>  <ACTIVITY>
5.00
$$$$
30166

  Mrv0541 05041708502D          

  1  0  0  0  0  0            999 V2000
    0.0000    0.0000    0.0000 B   0  5  0  0  0 15  0  0  0  0  0  0
M  CHG  1   1  -1
M  END

>  <ACTIVITY>
5.00
$$$$
30165

  Mrv0541 05041708502D          

  1  0  0  0  0  0            999 V2000
    0.0000    0.0000    0.0000 B   0  3  0  0  0  0  0  0  0  0  0  0
M  CHG  1   1   1
M  RAD  1   1   1
M  END

>  <ACTIVITY>
5.00
$$$$
30168

  Mrv0541 05041708512D          

  1  0  0  0  0  0            999 V2000
    0.0000    0.0000    0.0000 B   0  1  0  0  0  0  0  0  0  0  0  0
M  CHG  1   1   3
M  END

>  <ACTIVITY>
5.00
$$$$
59673

  Mrv0541 05041708512D          

 81 81  0  0  1  0            999 V2000
    6.8248  -16.2744    0.0000 C   0  0  0  0  0  0  0  0  0  0  0  0
    7.5405  -15.8669    0.0000 C   0  0  0  0  0  0  0  0  0  0  0  0
    8.2524  -16.2836    0.0000 N   0  0  0  0  0  0  0  0  0  0  0  0
    7.5454  -15.0419    0.0000 O   0  0  0  0  0  0  0  0  0  0  0  0
    8.9717  -15.8768    0.0000 C   0  0  2  0  0  0  0  0  0  0  0  0
    9.6825  -16.2957    0.0000 C   0  0  0  0  0  0  0  0  0  0  0  0
   10.4007  -15.8896    0.0000 N   0  0  0  0  0  0  0  0  0  0  0  0
    9.6752  -17.1205    0.0000 O   0  0  0  0  0  0  0  0  0  0  0  0
    8.9717  -15.0518    0.0000 C   0  0  0  0  0  0  0  0  0  0  0  0
    8.2573  -14.6393    0.0000 C   0  0  0  0  0  0  0  0  0  0  0  0
    8.2573  -13.8143    0.0000 N   0  0  0  0  0  0  0  0  0  0  0  0
   11.1200  -16.2964    0.0000 C   0  0  2  0  0  0  0  0  0  0  0  0
   11.8308  -15.8775    0.0000 C   0  0  0  0  0  0  0  0  0  0  0  0
   12.5490  -16.2836    0.0000 N   0  0  0  0  0  0  0  0  0  0  0  0
   11.8235  -15.0525    0.0000 O   0  0  0  0  0  0  0  0  0  0  0  0
   11.1200  -17.1214    0.0000 C   0  0  1  0  0  0  0  0  0  0  0  0
   10.4056  -17.5339    0.0000 C   0  0  0  0  0  0  0  0  0  0  0  0
   11.8344  -17.5339    0.0000 O   0  0  0  0  0  0  0  0  0  0  0  0
   13.2683  -15.8768    0.0000 C   0  0  2  0  0  0  0  0  0  0  0  0
   13.9789  -16.2957    0.0000 C   0  0  0  0  0  0  0  0  0  0  0  0
   14.6971  -15.8896    0.0000 N   0  0  0  0  0  0  0  0  0  0  0  0
   13.9717  -17.1205    0.0000 O   0  0  0  0  0  0  0  0  0  0  0  0
   13.2683  -15.0518    0.0000 C   0  0  0  0  0  0  0  0  0  0  0  0
   12.5537  -14.6393    0.0000 C   0  0  0  0  0  0  0  0  0  0  0  0
   12.5537  -13.8143    0.0000 N   0  0  0  0  0  0  0  0  0  0  0  0
   15.4165  -16.2964    0.0000 C   0  0  2  0  0  0  0  0  0  0  0  0
   16.1272  -15.8775    0.0000 C   0  0  0  0  0  0  0  0  0  0  0  0
   16.8453  -16.2836    0.0000 N   0  0  0  0  0  0  0  0  0  0  0  0
   16.1198  -15.0525    0.0000 O   0  0  0  0  0  0  0  0  0  0  0  0
   15.4165  -17.1214    0.0000 C   0  0  0  0  0  0  0  0  0  0  0  0
   17.5646  -15.8768    0.0000 C   0  0  2  0  0  0  0  0  0  0  0  0
   18.2754  -16.2957    0.0000 C   0  0  0  0  0  0  0  0  0  0  0  0
   18.2681  -17.1205    0.0000 N   0  0  0  0  0  0  0  0  0  0  0  0
   18.9936  -15.8895    0.0000 O   0  0  0  0  0  0  0  0  0  0  0  0
   17.5646  -15.0518    0.0000 C   0  0  0  0  0  0  0  0  0  0  0  0
   16.8502  -14.6393    0.0000 C   0  0  0  0  0  0  0  0  0  0  0  0
   16.8502  -13.8143    0.0000 N   0  0  0  0  0  0  0  0  0  0  0  0
   18.9725  -17.5528    0.0000 C   0  0  1  0  0  0  0  0  0  0  0  0
   18.9505  -18.3775    0.0000 C   0  0  0  0  0  0  0  0  0  0  0  0
   18.2251  -18.7707    0.0000 N   0  0  0  0  0  0  0  0  0  0  0  0
   19.6536  -18.8089    0.0000 O   0  0  0  0  0  0  0  0  0  0  0  0
   19.6941  -17.1530    0.0000 C   0  0  0  0  0  0  0  0  0  0  0  0
   20.4012  -17.5782    0.0000 C   0  0  0  0  0  0  0  0  0  0  0  0
   18.1884  -19.5964    0.0000 C   0  0  2  0  0  0  0  0  0  0  0  0
   17.4563  -19.9766    0.0000 C   0  0  0  0  0  0  0  0  0  0  0  0
   17.4196  -20.8008    0.0000 N   0  0  0  0  0  0  0  0  0  0  0  0
   16.7609  -19.5327    0.0000 O   0  0  0  0  0  0  0  0  0  0  0  0
   18.8877  -20.0340    0.0000 C   0  0  0  0  0  0  0  0  0  0  0  0
   18.8583  -20.8585    0.0000 C   0  0  0  0  0  0  0  0  0  0  0  0
   16.6931  -21.1947    0.0000 C   0  0  2  0  0  0  0  0  0  0  0  0
   15.9899  -20.7633    0.0000 C   0  0  0  0  0  0  0  0  0  0  0  0
   15.2646  -21.1565    0.0000 N   0  0  0  0  0  0  0  0  0  0  0  0
   16.0120  -19.9386    0.0000 O   0  0  0  0  0  0  0  0  0  0  0  0
   16.6784  -22.0196    0.0000 C   0  0  0  0  0  0  0  0  0  0  0  0
   17.3854  -22.4448    0.0000 C   0  0  0  0  0  0  0  0  0  0  0  0
   17.3707  -23.2695    0.0000 N   0  0  0  0  0  0  0  0  0  0  0  0
   14.5527  -20.7370    0.0000 C   0  0  2  0  0  0  0  0  0  0  0  0
   14.5600  -19.9120    0.0000 C   0  0  0  0  0  0  0  0  0  0  0  0
   13.8494  -19.4931    0.0000 N   0  0  0  0  0  0  0  0  0  0  0  0
   15.2782  -19.5059    0.0000 O   0  0  0  0  0  0  0  0  0  0  0  0
   13.8382  -21.1495    0.0000 C   0  0  0  0  0  0  0  0  0  0  0  0
   13.8382  -21.9745    0.0000 C   0  0  0  0  0  0  0  0  0  0  0  0
   13.1238  -22.3870    0.0000 N   0  0  0  0  0  0  0  0  0  0  0  0
   13.8420  -18.6668    0.0000 C   0  0  2  0  0  0  0  0  0  0  0  0
   14.5528  -18.2479    0.0000 C   0  0  0  0  0  0  0  0  0  0  0  0
   14.5453  -17.4229    0.0000 O   0  0  0  0  0  0  0  0  0  0  0  0
   15.2708  -18.6541    0.0000 N   0  0  0  0  0  0  0  0  0  0  0  0
   13.1203  -18.2671    0.0000 C   0  0  1  0  0  0  0  0  0  0  0  0
   12.4132  -18.6923    0.0000 C   0  0  0  0  0  0  0  0  0  0  0  0
   13.1056  -17.4422    0.0000 O   0  0  0  0  0  0  0  0  0  0  0  0
   16.1309  -17.5339    0.0000 C   0  0  0  0  0  0  0  0  0  0  0  0
    6.8249  -17.0994    0.0000 C   0  0  0  0  0  0  0  0  0  0  0  0
    7.5395  -17.5118    0.0000 C   0  0  0  0  0  0  0  0  0  0  0  0
    7.5397  -18.3368    0.0000 C   0  0  0  0  0  0  0  0  0  0  0  0
    8.2542  -18.7490    0.0000 C   0  0  0  0  0  0  0  0  0  0  0  0
    8.2544  -19.5740    0.0000 C   0  0  0  0  0  0  0  0  0  0  0  0
    8.9686  -18.3365    0.0000 C   0  0  0  0  0  0  0  0  0  0  0  0
   20.3866  -18.4030    0.0000 C   0  0  0  0  0  0  0  0  0  0  0  0
   21.1229  -17.1784    0.0000 C   0  0  0  0  0  0  0  0  0  0  0  0
   18.1296  -21.2453    0.0000 C   0  0  0  0  0  0  0  0  0  0  0  0
   19.5577  -21.2962    0.0000 C   0  0  0  0  0  0  0  0  0  0  0  0
  1  2  1  0  0  0  0
  2  3  1  0  0  0  0
  2  4  2  0  0  0  0
  5  3  1  1  0  0  0
  5  6  1  0  0  0  0
  6  7  1  0  0  0  0
  6  8  2  0  0  0  0
  5  9  1  0  0  0  0
  9 10  1  0  0  0  0
 10 11  1  0  0  0  0
 12  7  1  6  0  0  0
 12 13  1  0  0  0  0
 13 14  1  0  0  0  0
 13 15  2  0  0  0  0
 12 16  1  0  0  0  0
 16 17  1  0  0  0  0
 16 18  1  6  0  0  0
 19 14  1  1  0  0  0
 19 20  1  0  0  0  0
 20 21  1  0  0  0  0
 20 22  2  0  0  0  0
 19 23  1  0  0  0  0
 23 24  1  0  0  0  0
 24 25  1  0  0  0  0
 26 21  1  6  0  0  0
 26 27  1  0  0  0  0
 27 28  1  0  0  0  0
 27 29  2  0  0  0  0
 26 30  1  0  0  0  0
 31 28  1  1  0  0  0
 31 32  1  0  0  0  0
 32 33  1  0  0  0  0
 32 34  2  0  0  0  0
 31 35  1  0  0  0  0
 35 36  1  0  0  0  0
 36 37  1  0  0  0  0
 38 33  1  6  0  0  0
 38 39  1  0  0  0  0
 39 40  1  0  0  0  0
 39 41  2  0  0  0  0
 38 42  1  0  0  0  0
 42 43  1  0  0  0  0
 44 40  1  1  0  0  0
 44 45  1  0  0  0  0
 45 46  1  0  0  0  0
 45 47  2  0  0  0  0
 44 48  1  0  0  0  0
 48 49  1  0  0  0  0
 50 46  1  1  0  0  0
 50 51  1  0  0  0  0
 51 52  1  0  0  0  0
 51 53  2  0  0  0  0
 50 54  1  0  0  0  0
 54 55  1  0  0  0  0
 55 56  1  0  0  0  0
 57 52  1  1  0  0  0
 57 58  1  0  0  0  0
 58 59  1  0  0  0  0
 58 60  2  0  0  0  0
 57 61  1  0  0  0  0
 61 62  1  0  0  0  0
 62 63  1  0  0  0  0
 64 59  1  1  0  0  0
 64 65  1  0  0  0  0
 65 66  2  0  0  0  0
 65 67  1  0  0  0  0
 64 68  1  0  0  0  0
 68 69  1  0  0  0  0
 68 70  1  1  0  0  0
 30 71  1  0  0  0  0
 71 67  1  0  0  0  0
  1 72  1  0  0  0  0
 72 73  1  0  0  0  0
 73 74  1  0  0  0  0
 74 75  1  0  0  0  0
 75 76  1  0  0  0  0
 75 77  1  0  0  0  0
 43 78  1  0  0  0  0
 43 79  1  0  0  0  0
 49 80  1  0  0  0  0
 49 81  1  0  0  0  0
M  END

>  <ACTIVITY>
5.00
$$$$
59675

  Mrv0541 05041708512D          

187182  0  0  1  0            999 V2000
    6.1056  -16.4026    0.0000 C   0  0  0  0  0  0  0  0  0  0  0  0
    6.8213  -15.9950    0.0000 C   0  0  0  0  0  0  0  0  0  0  0  0
    7.5332  -16.4117    0.0000 N   0  0  0  0  0  0  0  0  0  0  0  0
    6.8262  -15.1700    0.0000 O   0  0  0  0  0  0  0  0  0  0  0  0
    8.2525  -16.0049    0.0000 C   0  0  2  0  0  0  0  0  0  0  0  0
    8.9633  -16.4238    0.0000 C   0  0  0  0  0  0  0  0  0  0  0  0
    9.6815  -16.0177    0.0000 N   0  0  0  0  0  0  0  0  0  0  0  0
    8.9560  -17.2487    0.0000 O   0  0  0  0  0  0  0  0  0  0  0  0
    8.2525  -15.1799    0.0000 C   0  0  0  0  0  0  0  0  0  0  0  0
    7.5381  -14.7674    0.0000 C   0  0  0  0  0  0  0  0  0  0  0  0
    7.5381  -13.9424    0.0000 N   0  3  0  0  0  0  0  0  0  0  0  0
   10.4008  -16.4245    0.0000 C   0  0  2  0  0  0  0  0  0  0  0  0
   11.1116  -16.0056    0.0000 C   0  0  0  0  0  0  0  0  0  0  0  0
   11.8298  -16.4117    0.0000 N   0  0  0  0  0  0  0  0  0  0  0  0
   11.1043  -15.1806    0.0000 O   0  0  0  0  0  0  0  0  0  0  0  0
   10.4008  -17.2495    0.0000 C   0  0  1  0  0  0  0  0  0  0  0  0
    9.6864  -17.6620    0.0000 C   0  0  0  0  0  0  0  0  0  0  0  0
   11.1152  -17.6620    0.0000 O   0  0  0  0  0  0  0  0  0  0  0  0
   12.5491  -16.0049    0.0000 C   0  0  2  0  0  0  0  0  0  0  0  0
   13.2597  -16.4238    0.0000 C   0  0  0  0  0  0  0  0  0  0  0  0
   13.9779  -16.0177    0.0000 N   0  0  0  0  0  0  0  0  0  0  0  0
   13.2525  -17.2487    0.0000 O   0  0  0  0  0  0  0  0  0  0  0  0
   12.5491  -15.1799    0.0000 C   0  0  0  0  0  0  0  0  0  0  0  0
   11.8345  -14.7674    0.0000 C   0  0  0  0  0  0  0  0  0  0  0  0
   11.8345  -13.9424    0.0000 N   0  3  0  0  0  0  0  0  0  0  0  0
   14.6973  -16.4245    0.0000 C   0  0  2  0  0  0  0  0  0  0  0  0
   15.4080  -16.0056    0.0000 C   0  0  0  0  0  0  0  0  0  0  0  0
   16.1261  -16.4117    0.0000 N   0  0  0  0  0  0  0  0  0  0  0  0
   15.4006  -15.1806    0.0000 O   0  0  0  0  0  0  0  0  0  0  0  0
   14.6973  -17.2495    0.0000 C   0  0  0  0  0  0  0  0  0  0  0  0
   16.8454  -16.0049    0.0000 C   0  0  2  0  0  0  0  0  0  0  0  0
   17.5562  -16.4238    0.0000 C   0  0  0  0  0  0  0  0  0  0  0  0
   17.5489  -17.2487    0.0000 N   0  0  0  0  0  0  0  0  0  0  0  0
   18.2744  -16.0177    0.0000 O   0  0  0  0  0  0  0  0  0  0  0  0
   16.8454  -15.1799    0.0000 C   0  0  0  0  0  0  0  0  0  0  0  0
   16.1310  -14.7674    0.0000 C   0  0  0  0  0  0  0  0  0  0  0  0
   16.1310  -13.9424    0.0000 N   0  3  0  0  0  0  0  0  0  0  0  0
   18.2533  -17.6809    0.0000 C   0  0  1  0  0  0  0  0  0  0  0  0
   18.2313  -18.5056    0.0000 C   0  0  0  0  0  0  0  0  0  0  0  0
   17.5059  -18.8988    0.0000 N   0  0  0  0  0  0  0  0  0  0  0  0
   18.9344  -18.9370    0.0000 O   0  0  0  0  0  0  0  0  0  0  0  0
   18.9749  -17.2811    0.0000 C   0  0  0  0  0  0  0  0  0  0  0  0
   19.6820  -17.7063    0.0000 C   0  0  0  0  0  0  0  0  0  0  0  0
   17.4692  -19.7245    0.0000 C   0  0  2  0  0  0  0  0  0  0  0  0
   16.7371  -20.1048    0.0000 C   0  0  0  0  0  0  0  0  0  0  0  0
   16.7004  -20.9289    0.0000 N   0  0  0  0  0  0  0  0  0  0  0  0
   16.0417  -19.6608    0.0000 O   0  0  0  0  0  0  0  0  0  0  0  0
   18.1685  -20.1621    0.0000 C   0  0  0  0  0  0  0  0  0  0  0  0
   18.1391  -20.9866    0.0000 C   0  0  0  0  0  0  0  0  0  0  0  0
   15.9739  -21.3228    0.0000 C   0  0  2  0  0  0  0  0  0  0  0  0
   15.2707  -20.8914    0.0000 C   0  0  0  0  0  0  0  0  0  0  0  0
   14.5454  -21.2846    0.0000 N   0  0  0  0  0  0  0  0  0  0  0  0
   15.2928  -20.0667    0.0000 O   0  0  0  0  0  0  0  0  0  0  0  0
   15.9592  -22.1477    0.0000 C   0  0  0  0  0  0  0  0  0  0  0  0
   16.6662  -22.5729    0.0000 C   0  0  0  0  0  0  0  0  0  0  0  0
   16.6515  -23.3976    0.0000 N   0  3  0  0  0  0  0  0  0  0  0  0
   13.8335  -20.8651    0.0000 C   0  0  2  0  0  0  0  0  0  0  0  0
   13.8408  -20.0401    0.0000 C   0  0  0  0  0  0  0  0  0  0  0  0
   13.1302  -19.6212    0.0000 N   0  0  0  0  0  0  0  0  0  0  0  0
   14.5590  -19.6340    0.0000 O   0  0  0  0  0  0  0  0  0  0  0  0
   13.1190  -21.2776    0.0000 C   0  0  0  0  0  0  0  0  0  0  0  0
   13.1190  -22.1026    0.0000 C   0  0  0  0  0  0  0  0  0  0  0  0
   12.4046  -22.5151    0.0000 N   0  3  0  0  0  0  0  0  0  0  0  0
   13.1228  -18.7949    0.0000 C   0  0  2  0  0  0  0  0  0  0  0  0
   13.8336  -18.3760    0.0000 C   0  0  0  0  0  0  0  0  0  0  0  0
   13.8261  -17.5511    0.0000 O   0  0  0  0  0  0  0  0  0  0  0  0
   14.5516  -18.7822    0.0000 N   0  0  0  0  0  0  0  0  0  0  0  0
   12.4011  -18.3952    0.0000 C   0  0  1  0  0  0  0  0  0  0  0  0
   11.6940  -18.8204    0.0000 C   0  0  0  0  0  0  0  0  0  0  0  0
   12.3864  -17.5703    0.0000 O   0  0  0  0  0  0  0  0  0  0  0  0
   15.4117  -17.6620    0.0000 C   0  0  0  0  0  0  0  0  0  0  0  0
    6.1057  -17.2276    0.0000 C   0  0  0  0  0  0  0  0  0  0  0  0
    6.8203  -17.6399    0.0000 C   0  0  0  0  0  0  0  0  0  0  0  0
    6.8205  -18.4649    0.0000 C   0  0  0  0  0  0  0  0  0  0  0  0
    7.5350  -18.8771    0.0000 C   0  0  0  0  0  0  0  0  0  0  0  0
    7.5352  -19.7021    0.0000 C   0  0  0  0  0  0  0  0  0  0  0  0
    8.2494  -18.4646    0.0000 C   0  0  0  0  0  0  0  0  0  0  0  0
   19.6674  -18.5311    0.0000 C   0  0  0  0  0  0  0  0  0  0  0  0
   20.4037  -17.3065    0.0000 C   0  0  0  0  0  0  0  0  0  0  0  0
   17.4104  -21.3735    0.0000 C   0  0  0  0  0  0  0  0  0  0  0  0
   18.8385  -21.4243    0.0000 C   0  0  0  0  0  0  0  0  0  0  0  0
    8.7235  -13.1592    0.0000 O   0  5  0  0  0  0  0  0  0  0  0  0
    9.4392  -12.7417    0.0000 S   0  0  0  0  0  0  0  0  0  0  0  0
   10.1555  -13.1510    0.0000 O   0  5  0  0  0  0  0  0  0  0  0  0
    9.8567  -12.0260    0.0000 O   0  0  0  0  0  0  0  0  0  0  0  0
    9.0218  -12.0360    0.0000 O   0  0  0  0  0  0  0  0  0  0  0  0
   11.7055  -13.1393    0.0000 O   0  5  0  0  0  0  0  0  0  0  0  0
   12.4212  -12.7218    0.0000 S   0  0  0  0  0  0  0  0  0  0  0  0
   13.1375  -13.1311    0.0000 O   0  5  0  0  0  0  0  0  0  0  0  0
   12.8386  -12.0062    0.0000 O   0  0  0  0  0  0  0  0  0  0  0  0
   12.0037  -12.0161    0.0000 O   0  0  0  0  0  0  0  0  0  0  0  0
   15.4727  -13.1393    0.0000 O   0  5  0  0  0  0  0  0  0  0  0  0
   16.1883  -12.7218    0.0000 S   0  0  0  0  0  0  0  0  0  0  0  0
   16.9046  -13.1311    0.0000 O   0  5  0  0  0  0  0  0  0  0  0  0
   16.6058  -12.0062    0.0000 O   0  0  0  0  0  0  0  0  0  0  0  0
   15.7708  -12.0161    0.0000 O   0  0  0  0  0  0  0  0  0  0  0  0
   18.8223  -13.1393    0.0000 O   0  5  0  0  0  0  0  0  0  0  0  0
   19.5380  -12.7218    0.0000 S   0  0  0  0  0  0  0  0  0  0  0  0
   20.2543  -13.1311    0.0000 O   0  5  0  0  0  0  0  0  0  0  0  0
   19.9555  -12.0062    0.0000 O   0  0  0  0  0  0  0  0  0  0  0  0
   19.1205  -12.0161    0.0000 O   0  0  0  0  0  0  0  0  0  0  0  0
    5.6223  -13.1393    0.0000 O   0  5  0  0  0  0  0  0  0  0  0  0
    6.3380  -12.7218    0.0000 S   0  0  0  0  0  0  0  0  0  0  0  0
    7.0543  -13.1311    0.0000 O   0  5  0  0  0  0  0  0  0  0  0  0
    6.7555  -12.0062    0.0000 O   0  0  0  0  0  0  0  0  0  0  0  0
    5.9205  -12.0161    0.0000 O   0  0  0  0  0  0  0  0  0  0  0  0
    6.5257   -4.2314    0.0000 C   0  0  0  0  0  0  0  0  0  0  0  0
    7.2414   -3.8239    0.0000 C   0  0  0  0  0  0  0  0  0  0  0  0
    7.9533   -4.2406    0.0000 N   0  0  0  0  0  0  0  0  0  0  0  0
    7.2463   -2.9989    0.0000 O   0  0  0  0  0  0  0  0  0  0  0  0
    8.6726   -3.8338    0.0000 C   0  0  2  0  0  0  0  0  0  0  0  0
    9.3834   -4.2527    0.0000 C   0  0  0  0  0  0  0  0  0  0  0  0
   10.1016   -3.8466    0.0000 N   0  0  0  0  0  0  0  0  0  0  0  0
    9.3761   -5.0776    0.0000 O   0  0  0  0  0  0  0  0  0  0  0  0
    8.6726   -3.0088    0.0000 C   0  0  0  0  0  0  0  0  0  0  0  0
    7.9582   -2.5963    0.0000 C   0  0  0  0  0  0  0  0  0  0  0  0
    7.9582   -1.7713    0.0000 N   0  3  0  0  0  0  0  0  0  0  0  0
   10.8209   -4.2534    0.0000 C   0  0  2  0  0  0  0  0  0  0  0  0
   11.5317   -3.8345    0.0000 C   0  0  0  0  0  0  0  0  0  0  0  0
   12.2500   -4.2406    0.0000 N   0  0  0  0  0  0  0  0  0  0  0  0
   11.5245   -3.0095    0.0000 O   0  0  0  0  0  0  0  0  0  0  0  0
   10.8209   -5.0784    0.0000 C   0  0  1  0  0  0  0  0  0  0  0  0
   10.1065   -5.4909    0.0000 C   0  0  0  0  0  0  0  0  0  0  0  0
   11.5353   -5.4909    0.0000 O   0  0  0  0  0  0  0  0  0  0  0  0
   12.9693   -3.8338    0.0000 C   0  0  2  0  0  0  0  0  0  0  0  0
   13.6798   -4.2527    0.0000 C   0  0  0  0  0  0  0  0  0  0  0  0
   14.3981   -3.8466    0.0000 N   0  0  0  0  0  0  0  0  0  0  0  0
   13.6726   -5.0776    0.0000 O   0  0  0  0  0  0  0  0  0  0  0  0
   12.9693   -3.0088    0.0000 C   0  0  0  0  0  0  0  0  0  0  0  0
   12.2546   -2.5963    0.0000 C   0  0  0  0  0  0  0  0  0  0  0  0
   12.2546   -1.7713    0.0000 N   0  3  0  0  0  0  0  0  0  0  0  0
   15.1174   -4.2534    0.0000 C   0  0  2  0  0  0  0  0  0  0  0  0
   15.8282   -3.8345    0.0000 C   0  0  0  0  0  0  0  0  0  0  0  0
   16.5462   -4.2406    0.0000 N   0  0  0  0  0  0  0  0  0  0  0  0
   15.8207   -3.0095    0.0000 O   0  0  0  0  0  0  0  0  0  0  0  0
   15.1174   -5.0784    0.0000 C   0  0  0  0  0  0  0  0  0  0  0  0
   17.2655   -3.8338    0.0000 C   0  0  2  0  0  0  0  0  0  0  0  0
   17.9763   -4.2527    0.0000 C   0  0  0  0  0  0  0  0  0  0  0  0
   17.9690   -5.0776    0.0000 N   0  0  0  0  0  0  0  0  0  0  0  0
   18.6945   -3.8465    0.0000 O   0  0  0  0  0  0  0  0  0  0  0  0
   17.2655   -3.0088    0.0000 C   0  0  0  0  0  0  0  0  0  0  0  0
   16.5511   -2.5963    0.0000 C   0  0  0  0  0  0  0  0  0  0  0  0
   16.5511   -1.7713    0.0000 N   0  3  0  0  0  0  0  0  0  0  0  0
   18.6734   -5.5098    0.0000 C   0  0  1  0  0  0  0  0  0  0  0  0
   18.6515   -6.3345    0.0000 C   0  0  0  0  0  0  0  0  0  0  0  0
   17.9260   -6.7277    0.0000 N   0  0  0  0  0  0  0  0  0  0  0  0
   19.3545   -6.7659    0.0000 O   0  0  0  0  0  0  0  0  0  0  0  0
   19.3950   -5.1100    0.0000 C   0  0  0  0  0  0  0  0  0  0  0  0
   20.1022   -5.5352    0.0000 C   0  0  0  0  0  0  0  0  0  0  0  0
   17.8894   -7.5534    0.0000 C   0  0  2  0  0  0  0  0  0  0  0  0
   17.1572   -7.9336    0.0000 C   0  0  0  0  0  0  0  0  0  0  0  0
   17.1206   -8.7578    0.0000 N   0  0  0  0  0  0  0  0  0  0  0  0
   16.4619   -7.4897    0.0000 O   0  0  0  0  0  0  0  0  0  0  0  0
   18.5886   -7.9910    0.0000 C   0  0  0  0  0  0  0  0  0  0  0  0
   18.5592   -8.8155    0.0000 C   0  0  0  0  0  0  0  0  0  0  0  0
   16.3941   -9.1517    0.0000 C   0  0  2  0  0  0  0  0  0  0  0  0
   15.6908   -8.7203    0.0000 C   0  0  0  0  0  0  0  0  0  0  0  0
   14.9655   -9.1135    0.0000 N   0  0  0  0  0  0  0  0  0  0  0  0
   15.7129   -7.8956    0.0000 O   0  0  0  0  0  0  0  0  0  0  0  0
   16.3794   -9.9766    0.0000 C   0  0  0  0  0  0  0  0  0  0  0  0
   17.0863  -10.4018    0.0000 C   0  0  0  0  0  0  0  0  0  0  0  0
   17.0716  -11.2265    0.0000 N   0  3  0  0  0  0  0  0  0  0  0  0
   14.2537   -8.6940    0.0000 C   0  0  2  0  0  0  0  0  0  0  0  0
   14.2609   -7.8690    0.0000 C   0  0  0  0  0  0  0  0  0  0  0  0
   13.5504   -7.4501    0.0000 N   0  0  0  0  0  0  0  0  0  0  0  0
   14.9792   -7.4629    0.0000 O   0  0  0  0  0  0  0  0  0  0  0  0
   13.5391   -9.1065    0.0000 C   0  0  0  0  0  0  0  0  0  0  0  0
   13.5391   -9.9315    0.0000 C   0  0  0  0  0  0  0  0  0  0  0  0
   12.8247  -10.3440    0.0000 N   0  3  0  0  0  0  0  0  0  0  0  0
   13.5429   -6.6238    0.0000 C   0  0  2  0  0  0  0  0  0  0  0  0
   14.2537   -6.2049    0.0000 C   0  0  0  0  0  0  0  0  0  0  0  0
   14.2462   -5.3800    0.0000 O   0  0  0  0  0  0  0  0  0  0  0  0
   14.9717   -6.6111    0.0000 N   0  0  0  0  0  0  0  0  0  0  0  0
   12.8213   -6.2241    0.0000 C   0  0  1  0  0  0  0  0  0  0  0  0
   12.1141   -6.6493    0.0000 C   0  0  0  0  0  0  0  0  0  0  0  0
   12.8066   -5.3992    0.0000 O   0  0  0  0  0  0  0  0  0  0  0  0
   15.8318   -5.4909    0.0000 C   0  0  0  0  0  0  0  0  0  0  0  0
    6.5258   -5.0564    0.0000 C   0  0  0  0  0  0  0  0  0  0  0  0
    7.2404   -5.4688    0.0000 C   0  0  0  0  0  0  0  0  0  0  0  0
    7.2406   -6.2938    0.0000 C   0  0  0  0  0  0  0  0  0  0  0  0
    7.9551   -6.7060    0.0000 C   0  0  0  0  0  0  0  0  0  0  0  0
    7.9553   -7.5310    0.0000 C   0  0  0  0  0  0  0  0  0  0  0  0
    8.6695   -6.2935    0.0000 C   0  0  0  0  0  0  0  0  0  0  0  0
   20.0875   -6.3600    0.0000 C   0  0  0  0  0  0  0  0  0  0  0  0
   20.8238   -5.1354    0.0000 C   0  0  0  0  0  0  0  0  0  0  0  0
   17.8306   -9.2023    0.0000 C   0  0  0  0  0  0  0  0  0  0  0  0
   19.2586   -9.2532    0.0000 C   0  0  0  0  0  0  0  0  0  0  0  0
  1  2  1  0  0  0  0
  2  3  1  0  0  0  0
  2  4  2  0  0  0  0
  5  3  1  1  0  0  0
  5  6  1  0  0  0  0
  6  7  1  0  0  0  0
  6  8  2  0  0  0  0
  5  9  1  0  0  0  0
  9 10  1  0  0  0  0
 10 11  1  0  0  0  0
 12  7  1  6  0  0  0
 12 13  1  0  0  0  0
 13 14  1  0  0  0  0
 13 15  2  0  0  0  0
 12 16  1  0  0  0  0
 16 17  1  0  0  0  0
 16 18  1  6  0  0  0
 19 14  1  1  0  0  0
 19 20  1  0  0  0  0
 20 21  1  0  0  0  0
 20 22  2  0  0  0  0
 19 23  1  0  0  0  0
 23 24  1  0  0  0  0
 24 25  1  0  0  0  0
 26 21  1  6  0  0  0
 26 27  1  0  0  0  0
 27 28  1  0  0  0  0
 27 29  2  0  0  0  0
 26 30  1  0  0  0  0
 31 28  1  1  0  0  0
 31 32  1  0  0  0  0
 32 33  1  0  0  0  0
 32 34  2  0  0  0  0
 31 35  1  0  0  0  0
 35 36  1  0  0  0  0
 36 37  1  0  0  0  0
 38 33  1  6  0  0  0
 38 39  1  0  0  0  0
 39 40  1  0  0  0  0
 39 41  2  0  0  0  0
 38 42  1  0  0  0  0
 42 43  1  0  0  0  0
 44 40  1  1  0  0  0
 44 45  1  0  0  0  0
 45 46  1  0  0  0  0
 45 47  2  0  0  0  0
 44 48  1  0  0  0  0
 48 49  1  0  0  0  0
 50 46  1  1  0  0  0
 50 51  1  0  0  0  0
 51 52  1  0  0  0  0
 51 53  2  0  0  0  0
 50 54  1  0  0  0  0
 54 55  1  0  0  0  0
 55 56  1  0  0  0  0
 57 52  1  1  0  0  0
 57 58  1  0  0  0  0
 58 59  1  0  0  0  0
 58 60  2  0  0  0  0
 57 61  1  0  0  0  0
 61 62  1  0  0  0  0
 62 63  1  0  0  0  0
 64 59  1  1  0  0  0
 64 65  1  0  0  0  0
 65 66  2  0  0  0  0
 65 67  1  0  0  0  0
 64 68  1  0  0  0  0
 68 69  1  0  0  0  0
 68 70  1  1  0  0  0
 30 71  1  0  0  0  0
 71 67  1  0  0  0  0
  1 72  1  0  0  0  0
 72 73  1  0  0  0  0
 73 74  1  0  0  0  0
 74 75  1  0  0  0  0
 75 76  1  0  0  0  0
 75 77  1  0  0  0  0
 43 78  1  0  0  0  0
 43 79  1  0  0  0  0
 49 80  1  0  0  0  0
 49 81  1  0  0  0  0
 82 83  1  0  0  0  0
 83 84  1  0  0  0  0
 83 85  2  0  0  0  0
 83 86  2  0  0  0  0
 87 88  1  0  0  0  0
 88 89  1  0  0  0  0
 88 90  2  0  0  0  0
 88 91  2  0  0  0  0
 92 93  1  0  0  0  0
 93 94  1  0  0  0  0
 93 95  2  0  0  0  0
 93 96  2  0  0  0  0
 97 98  1  0  0  0  0
 98 99  1  0  0  0  0
 98100  2  0  0  0  0
 98101  2  0  0  0  0
102103  1  0  0  0  0
103104  1  0  0  0  0
103105  2  0  0  0  0
103106  2  0  0  0  0
107108  1  0  0  0  0
108109  1  0  0  0  0
108110  2  0  0  0  0
111109  1  1  0  0  0
111112  1  0  0  0  0
112113  1  0  0  0  0
112114  2  0  0  0  0
111115  1  0  0  0  0
115116  1  0  0  0  0
116117  1  0  0  0  0
118113  1  6  0  0  0
118119  1  0  0  0  0
119120  1  0  0  0  0
119121  2  0  0  0  0
118122  1  0  0  0  0
122123  1  0  0  0  0
122124  1  6  0  0  0
125120  1  1  0  0  0
125126  1  0  0  0  0
126127  1  0  0  0  0
126128  2  0  0  0  0
125129  1  0  0  0  0
129130  1  0  0  0  0
130131  1  0  0  0  0
132127  1  6  0  0  0
132133  1  0  0  0  0
133134  1  0  0  0  0
133135  2  0  0  0  0
132136  1  0  0  0  0
137134  1  1  0  0  0
137138  1  0  0  0  0
138139  1  0  0  0  0
138140  2  0  0  0  0
137141  1  0  0  0  0
141142  1  0  0  0  0
142143  1  0  0  0  0
144139  1  6  0  0  0
144145  1  0  0  0  0
145146  1  0  0  0  0
145147  2  0  0  0  0
144148  1  0  0  0  0
148149  1  0  0  0  0
150146  1  1  0  0  0
150151  1  0  0  0  0
151152  1  0  0  0  0
151153  2  0  0  0  0
150154  1  0  0  0  0
154155  1  0  0  0  0
156152  1  1  0  0  0
156157  1  0  0  0  0
157158  1  0  0  0  0
157159  2  0  0  0  0
156160  1  0  0  0  0
160161  1  0  0  0  0
161162  1  0  0  0  0
163158  1  1  0  0  0
163164  1  0  0  0  0
164165  1  0  0  0  0
164166  2  0  0  0  0
163167  1  0  0  0  0
167168  1  0  0  0  0
168169  1  0  0  0  0
170165  1  1  0  0  0
170171  1  0  0  0  0
171172  2  0  0  0  0
171173  1  0  0  0  0
170174  1  0  0  0  0
174175  1  0  0  0  0
174176  1  1  0  0  0
136177  1  0  0  0  0
177173  1  0  0  0  0
107178  1  0  0  0  0
178179  1  0  0  0  0
179180  1  0  0  0  0
180181  1  0  0  0  0
181182  1  0  0  0  0
181183  1  0  0  0  0
149184  1  0  0  0  0
149185  1  0  0  0  0
155186  1  0  0  0  0
155187  1  0  0  0  0
M  CHG  8  11   1  25   1  37   1  56   1  63   1  82  -1  84  -1  87  -1
M  CHG  8  89  -1  92  -1  94  -1  97  -1  99  -1 102  -1 104  -1 117   1
M  CHG  4 131   1 143   1 162   1 169   1
M  END

>  <ACTIVITY>
5.00
$$$$
59664

  Mrv0541 05041708512D          

111106  0  0  1  0            999 V2000
    5.8209  -26.3434    0.0000 C   0  0  0  0  0  0  0  0  0  0  0  0
    6.5366  -25.9358    0.0000 C   0  0  0  0  0  0  0  0  0  0  0  0
    7.2485  -26.3525    0.0000 N   0  0  0  0  0  0  0  0  0  0  0  0
    6.5415  -25.1108    0.0000 O   0  0  0  0  0  0  0  0  0  0  0  0
    7.9678  -25.9458    0.0000 C   0  0  2  0  0  0  0  0  0  0  0  0
    8.6786  -26.3646    0.0000 C   0  0  0  0  0  0  0  0  0  0  0  0
    9.3968  -25.9585    0.0000 N   0  0  0  0  0  0  0  0  0  0  0  0
    8.6713  -27.1896    0.0000 O   0  0  0  0  0  0  0  0  0  0  0  0
    7.9678  -25.1208    0.0000 C   0  0  0  0  0  0  0  0  0  0  0  0
    7.2534  -24.7083    0.0000 C   0  0  0  0  0  0  0  0  0  0  0  0
    7.2534  -23.8833    0.0000 N   0  0  0  0  0  0  0  0  0  0  0  0
   10.1161  -26.3653    0.0000 C   0  0  2  0  0  0  0  0  0  0  0  0
   10.8269  -25.9464    0.0000 C   0  0  0  0  0  0  0  0  0  0  0  0
   11.5451  -26.3525    0.0000 N   0  0  0  0  0  0  0  0  0  0  0  0
   10.8196  -25.1214    0.0000 O   0  0  0  0  0  0  0  0  0  0  0  0
   10.1161  -27.1903    0.0000 C   0  0  1  0  0  0  0  0  0  0  0  0
    9.4017  -27.6028    0.0000 C   0  0  0  0  0  0  0  0  0  0  0  0
   10.8305  -27.6028    0.0000 O   0  0  0  0  0  0  0  0  0  0  0  0
   12.2644  -25.9458    0.0000 C   0  0  2  0  0  0  0  0  0  0  0  0
   12.9750  -26.3646    0.0000 C   0  0  0  0  0  0  0  0  0  0  0  0
   13.6932  -25.9585    0.0000 N   0  0  0  0  0  0  0  0  0  0  0  0
   12.9678  -27.1896    0.0000 O   0  0  0  0  0  0  0  0  0  0  0  0
   12.2644  -25.1208    0.0000 C   0  0  0  0  0  0  0  0  0  0  0  0
   11.5498  -24.7083    0.0000 C   0  0  0  0  0  0  0  0  0  0  0  0
   11.5498  -23.8833    0.0000 N   0  0  0  0  0  0  0  0  0  0  0  0
   14.4126  -26.3653    0.0000 C   0  0  2  0  0  0  0  0  0  0  0  0
   15.1233  -25.9464    0.0000 C   0  0  0  0  0  0  0  0  0  0  0  0
   15.8414  -26.3525    0.0000 N   0  0  0  0  0  0  0  0  0  0  0  0
   15.1159  -25.1214    0.0000 O   0  0  0  0  0  0  0  0  0  0  0  0
   14.4126  -27.1903    0.0000 C   0  0  0  0  0  0  0  0  0  0  0  0
   16.5607  -25.9458    0.0000 C   0  0  2  0  0  0  0  0  0  0  0  0
   17.2715  -26.3646    0.0000 C   0  0  0  0  0  0  0  0  0  0  0  0
   17.2642  -27.1896    0.0000 N   0  0  0  0  0  0  0  0  0  0  0  0
   17.9897  -25.9585    0.0000 O   0  0  0  0  0  0  0  0  0  0  0  0
   16.5607  -25.1208    0.0000 C   0  0  0  0  0  0  0  0  0  0  0  0
   15.8463  -24.7083    0.0000 C   0  0  0  0  0  0  0  0  0  0  0  0
   15.8463  -23.8833    0.0000 N   0  0  0  0  0  0  0  0  0  0  0  0
   17.9686  -27.6217    0.0000 C   0  0  1  0  0  0  0  0  0  0  0  0
   17.9466  -28.4464    0.0000 C   0  0  0  0  0  0  0  0  0  0  0  0
   17.2212  -28.8396    0.0000 N   0  0  0  0  0  0  0  0  0  0  0  0
   18.6497  -28.8779    0.0000 O   0  0  0  0  0  0  0  0  0  0  0  0
   18.6902  -27.2220    0.0000 C   0  0  0  0  0  0  0  0  0  0  0  0
   19.3973  -27.6472    0.0000 C   0  0  0  0  0  0  0  0  0  0  0  0
   17.1845  -29.6654    0.0000 C   0  0  2  0  0  0  0  0  0  0  0  0
   16.4524  -30.0456    0.0000 C   0  0  0  0  0  0  0  0  0  0  0  0
   16.4157  -30.8698    0.0000 N   0  0  0  0  0  0  0  0  0  0  0  0
   15.7570  -29.6017    0.0000 O   0  0  0  0  0  0  0  0  0  0  0  0
   17.8838  -30.1029    0.0000 C   0  0  0  0  0  0  0  0  0  0  0  0
   17.8544  -30.9275    0.0000 C   0  0  0  0  0  0  0  0  0  0  0  0
   15.6892  -31.2637    0.0000 C   0  0  2  0  0  0  0  0  0  0  0  0
   14.9860  -30.8322    0.0000 C   0  0  0  0  0  0  0  0  0  0  0  0
   14.2607  -31.2254    0.0000 N   0  0  0  0  0  0  0  0  0  0  0  0
   15.0081  -30.0075    0.0000 O   0  0  0  0  0  0  0  0  0  0  0  0
   15.6745  -32.0885    0.0000 C   0  0  0  0  0  0  0  0  0  0  0  0
   16.3815  -32.5137    0.0000 C   0  0  0  0  0  0  0  0  0  0  0  0
   16.3668  -33.3384    0.0000 N   0  0  0  0  0  0  0  0  0  0  0  0
   13.5488  -30.8059    0.0000 C   0  0  2  0  0  0  0  0  0  0  0  0
   13.5561  -29.9809    0.0000 C   0  0  0  0  0  0  0  0  0  0  0  0
   12.8455  -29.5620    0.0000 N   0  0  0  0  0  0  0  0  0  0  0  0
   14.2743  -29.5749    0.0000 O   0  0  0  0  0  0  0  0  0  0  0  0
   12.8343  -31.2184    0.0000 C   0  0  0  0  0  0  0  0  0  0  0  0
   12.8343  -32.0434    0.0000 C   0  0  0  0  0  0  0  0  0  0  0  0
   12.1199  -32.4559    0.0000 N   0  0  0  0  0  0  0  0  0  0  0  0
   12.8381  -28.7357    0.0000 C   0  0  2  0  0  0  0  0  0  0  0  0
   13.5489  -28.3169    0.0000 C   0  0  0  0  0  0  0  0  0  0  0  0
   13.5414  -27.4920    0.0000 O   0  0  0  0  0  0  0  0  0  0  0  0
   14.2669  -28.7230    0.0000 N   0  0  0  0  0  0  0  0  0  0  0  0
   12.1164  -28.3361    0.0000 C   0  0  1  0  0  0  0  0  0  0  0  0
   11.4093  -28.7612    0.0000 C   0  0  0  0  0  0  0  0  0  0  0  0
   12.1017  -27.5111    0.0000 O   0  0  0  0  0  0  0  0  0  0  0  0
   15.1270  -27.6028    0.0000 C   0  0  0  0  0  0  0  0  0  0  0  0
    7.9655  -23.4665    0.0000 C   0  0  0  0  0  0  0  0  0  0  0  0
    8.6811  -23.8741    0.0000 S   0  0  0  0  0  0  0  0  0  0  0  0
    9.3932  -23.4572    0.0000 O   0  5  0  0  0  0  0  0  0  0  0  0
    8.2736  -24.5897    0.0000 O   0  0  0  0  0  0  0  0  0  0  0  0
    9.0887  -24.5897    0.0000 O   0  0  0  0  0  0  0  0  0  0  0  0
   12.2619  -23.4665    0.0000 C   0  0  0  0  0  0  0  0  0  0  0  0
   12.9776  -23.8741    0.0000 S   0  0  0  0  0  0  0  0  0  0  0  0
   13.6896  -23.4572    0.0000 O   0  5  0  0  0  0  0  0  0  0  0  0
   12.5700  -24.5897    0.0000 O   0  0  0  0  0  0  0  0  0  0  0  0
   13.3851  -24.5897    0.0000 O   0  0  0  0  0  0  0  0  0  0  0  0
   16.5583  -23.4665    0.0000 C   0  0  0  0  0  0  0  0  0  0  0  0
   17.2740  -23.8741    0.0000 S   0  0  0  0  0  0  0  0  0  0  0  0
   17.9859  -23.4572    0.0000 O   0  5  0  0  0  0  0  0  0  0  0  0
   16.8664  -24.5897    0.0000 O   0  0  0  0  0  0  0  0  0  0  0  0
   17.6814  -24.5897    0.0000 O   0  0  0  0  0  0  0  0  0  0  0  0
   17.0788  -33.7553    0.0000 C   0  0  0  0  0  0  0  0  0  0  0  0
   17.7945  -33.3477    0.0000 S   0  0  0  0  0  0  0  0  0  0  0  0
   18.5064  -33.7646    0.0000 O   0  5  0  0  0  0  0  0  0  0  0  0
   17.3870  -32.6322    0.0000 O   0  0  0  0  0  0  0  0  0  0  0  0
   18.2021  -32.6322    0.0000 O   0  0  0  0  0  0  0  0  0  0  0  0
   11.4078  -32.0390    0.0000 C   0  0  0  0  0  0  0  0  0  0  0  0
   10.6921  -32.4468    0.0000 S   0  0  0  0  0  0  0  0  0  0  0  0
    9.9802  -32.0300    0.0000 O   0  5  0  0  0  0  0  0  0  0  0  0
   11.0997  -33.1623    0.0000 O   0  0  0  0  0  0  0  0  0  0  0  0
   10.2847  -33.1623    0.0000 O   0  0  0  0  0  0  0  0  0  0  0  0
    5.8210  -27.1684    0.0000 C   0  0  0  0  0  0  0  0  0  0  0  0
    6.5356  -27.5807    0.0000 C   0  0  0  0  0  0  0  0  0  0  0  0
    6.5358  -28.4057    0.0000 C   0  0  0  0  0  0  0  0  0  0  0  0
    7.2503  -28.8179    0.0000 C   0  0  0  0  0  0  0  0  0  0  0  0
    7.2504  -29.6429    0.0000 C   0  0  0  0  0  0  0  0  0  0  0  0
    7.9647  -28.4054    0.0000 C   0  0  0  0  0  0  0  0  0  0  0  0
   19.3827  -28.4719    0.0000 C   0  0  0  0  0  0  0  0  0  0  0  0
   20.1190  -27.2473    0.0000 C   0  0  0  0  0  0  0  0  0  0  0  0
   17.1257  -31.3143    0.0000 C   0  0  0  0  0  0  0  0  0  0  0  0
   18.5538  -31.3651    0.0000 C   0  0  0  0  0  0  0  0  0  0  0  0
   10.0553  -24.1069    0.0000 Na  0  3  0  0  0  0  0  0  0  0  0  0
   14.4089  -24.1466    0.0000 Na  0  3  0  0  0  0  0  0  0  0  0  0
   18.6134  -24.0870    0.0000 Na  0  3  0  0  0  0  0  0  0  0  0  0
    9.9957  -30.7466    0.0000 Na  0  3  0  0  0  0  0  0  0  0  0  0
   19.0011  -32.6054    0.0000 Na  0  3  0  0  0  0  0  0  0  0  0  0
  1  2  1  0  0  0  0
  2  3  1  0  0  0  0
  2  4  2  0  0  0  0
  5  3  1  1  0  0  0
  5  6  1  0  0  0  0
  6  7  1  0  0  0  0
  6  8  2  0  0  0  0
  5  9  1  0  0  0  0
  9 10  1  0  0  0  0
 10 11  1  0  0  0  0
 12  7  1  6  0  0  0
 12 13  1  0  0  0  0
 13 14  1  0  0  0  0
 13 15  2  0  0  0  0
 12 16  1  0  0  0  0
 16 17  1  0  0  0  0
 16 18  1  6  0  0  0
 19 14  1  1  0  0  0
 19 20  1  0  0  0  0
 20 21  1  0  0  0  0
 20 22  2  0  0  0  0
 19 23  1  0  0  0  0
 23 24  1  0  0  0  0
 24 25  1  0  0  0  0
 26 21  1  6  0  0  0
 26 27  1  0  0  0  0
 27 28  1  0  0  0  0
 27 29  2  0  0  0  0
 26 30  1  0  0  0  0
 31 28  1  1  0  0  0
 31 32  1  0  0  0  0
 32 33  1  0  0  0  0
 32 34  2  0  0  0  0
 31 35  1  0  0  0  0
 35 36  1  0  0  0  0
 36 37  1  0  0  0  0
 38 33  1  6  0  0  0
 38 39  1  0  0  0  0
 39 40  1  0  0  0  0
 39 41  2  0  0  0  0
 38 42  1  0  0  0  0
 42 43  1  0  0  0  0
 44 40  1  1  0  0  0
 44 45  1  0  0  0  0
 45 46  1  0  0  0  0
 45 47  2  0  0  0  0
 44 48  1  0  0  0  0
 48 49  1  0  0  0  0
 50 46  1  1  0  0  0
 50 51  1  0  0  0  0
 51 52  1  0  0  0  0
 51 53  2  0  0  0  0
 50 54  1  0  0  0  0
 54 55  1  0  0  0  0
 55 56  1  0  0  0  0
 57 52  1  1  0  0  0
 57 58  1  0  0  0  0
 58 59  1  0  0  0  0
 58 60  2  0  0  0  0
 57 61  1  0  0  0  0
 61 62  1  0  0  0  0
 62 63  1  0  0  0  0
 64 59  1  1  0  0  0
 64 65  1  0  0  0  0
 65 66  2  0  0  0  0
 65 67  1  0  0  0  0
 64 68  1  0  0  0  0
 68 69  1  0  0  0  0
 68 70  1  1  0  0  0
 30 71  1  0  0  0  0
 71 67  1  0  0  0  0
 72 73  1  0  0  0  0
 73 74  1  0  0  0  0
 73 75  2  0  0  0  0
 73 76  2  0  0  0  0
 72 11  1  0  0  0  0
 77 78  1  0  0  0  0
 78 79  1  0  0  0  0
 78 80  2  0  0  0  0
 78 81  2  0  0  0  0
 77 25  1  0  0  0  0
 82 83  1  0  0  0  0
 83 84  1  0  0  0  0
 83 85  2  0  0  0  0
 83 86  2  0  0  0  0
 82 37  1  0  0  0  0
 87 88  1  0  0  0  0
 88 89  1  0  0  0  0
 88 90  2  0  0  0  0
 88 91  2  0  0  0  0
 87 56  1  0  0  0  0
 92 93  1  0  0  0  0
 93 94  1  0  0  0  0
 93 95  2  0  0  0  0
 93 96  2  0  0  0  0
 92 63  1  0  0  0  0
  1 97  1  0  0  0  0
 97 98  1  0  0  0  0
 98 99  1  0  0  0  0
 99100  1  0  0  0  0
100101  1  0  0  0  0
100102  1  0  0  0  0
 43103  1  0  0  0  0
 43104  1  0  0  0  0
 49105  1  0  0  0  0
 49106  1  0  0  0  0
M  CHG  8  74  -1  79  -1  84  -1  89  -1  94  -1 107   1 108   1 109   1
M  CHG  2 110   1 111   1
M  END

>  <ACTIVITY>
5.00
$$$$
59667

  Mrv0541 05041708512D          

106106  0  0  1  0            999 V2000
    5.8209  -26.3434    0.0000 C   0  0  0  0  0  0  0  0  0  0  0  0
    6.5366  -25.9358    0.0000 C   0  0  0  0  0  0  0  0  0  0  0  0
    7.2485  -26.3525    0.0000 N   0  0  0  0  0  0  0  0  0  0  0  0
    6.5415  -25.1108    0.0000 O   0  0  0  0  0  0  0  0  0  0  0  0
    7.9678  -25.9458    0.0000 C   0  0  2  0  0  0  0  0  0  0  0  0
    8.6786  -26.3646    0.0000 C   0  0  0  0  0  0  0  0  0  0  0  0
    9.3968  -25.9585    0.0000 N   0  0  0  0  0  0  0  0  0  0  0  0
    8.6713  -27.1896    0.0000 O   0  0  0  0  0  0  0  0  0  0  0  0
    7.9678  -25.1208    0.0000 C   0  0  0  0  0  0  0  0  0  0  0  0
    7.2534  -24.7083    0.0000 C   0  0  0  0  0  0  0  0  0  0  0  0
    7.2534  -23.8833    0.0000 N   0  0  0  0  0  0  0  0  0  0  0  0
   10.1161  -26.3653    0.0000 C   0  0  2  0  0  0  0  0  0  0  0  0
   10.8269  -25.9464    0.0000 C   0  0  0  0  0  0  0  0  0  0  0  0
   11.5451  -26.3525    0.0000 N   0  0  0  0  0  0  0  0  0  0  0  0
   10.8196  -25.1214    0.0000 O   0  0  0  0  0  0  0  0  0  0  0  0
   10.1161  -27.1903    0.0000 C   0  0  1  0  0  0  0  0  0  0  0  0
    9.4017  -27.6028    0.0000 C   0  0  0  0  0  0  0  0  0  0  0  0
   10.8305  -27.6028    0.0000 O   0  0  0  0  0  0  0  0  0  0  0  0
   12.2644  -25.9458    0.0000 C   0  0  2  0  0  0  0  0  0  0  0  0
   12.9750  -26.3646    0.0000 C   0  0  0  0  0  0  0  0  0  0  0  0
   13.6932  -25.9585    0.0000 N   0  0  0  0  0  0  0  0  0  0  0  0
   12.9678  -27.1896    0.0000 O   0  0  0  0  0  0  0  0  0  0  0  0
   12.2644  -25.1208    0.0000 C   0  0  0  0  0  0  0  0  0  0  0  0
   11.5498  -24.7083    0.0000 C   0  0  0  0  0  0  0  0  0  0  0  0
   11.5498  -23.8833    0.0000 N   0  0  0  0  0  0  0  0  0  0  0  0
   14.4126  -26.3653    0.0000 C   0  0  2  0  0  0  0  0  0  0  0  0
   15.1233  -25.9464    0.0000 C   0  0  0  0  0  0  0  0  0  0  0  0
   15.8414  -26.3525    0.0000 N   0  0  0  0  0  0  0  0  0  0  0  0
   15.1159  -25.1214    0.0000 O   0  0  0  0  0  0  0  0  0  0  0  0
   14.4126  -27.1903    0.0000 C   0  0  0  0  0  0  0  0  0  0  0  0
   16.5607  -25.9458    0.0000 C   0  0  2  0  0  0  0  0  0  0  0  0
   17.2715  -26.3646    0.0000 C   0  0  0  0  0  0  0  0  0  0  0  0
   17.2642  -27.1896    0.0000 N   0  0  0  0  0  0  0  0  0  0  0  0
   17.9897  -25.9585    0.0000 O   0  0  0  0  0  0  0  0  0  0  0  0
   16.5607  -25.1208    0.0000 C   0  0  0  0  0  0  0  0  0  0  0  0
   15.8463  -24.7083    0.0000 C   0  0  0  0  0  0  0  0  0  0  0  0
   15.8463  -23.8833    0.0000 N   0  0  0  0  0  0  0  0  0  0  0  0
   17.9686  -27.6217    0.0000 C   0  0  1  0  0  0  0  0  0  0  0  0
   17.9466  -28.4464    0.0000 C   0  0  0  0  0  0  0  0  0  0  0  0
   17.2212  -28.8396    0.0000 N   0  0  0  0  0  0  0  0  0  0  0  0
   18.6497  -28.8779    0.0000 O   0  0  0  0  0  0  0  0  0  0  0  0
   18.6902  -27.2220    0.0000 C   0  0  0  0  0  0  0  0  0  0  0  0
   19.3973  -27.6472    0.0000 C   0  0  0  0  0  0  0  0  0  0  0  0
   17.1845  -29.6654    0.0000 C   0  0  2  0  0  0  0  0  0  0  0  0
   16.4524  -30.0456    0.0000 C   0  0  0  0  0  0  0  0  0  0  0  0
   16.4157  -30.8698    0.0000 N   0  0  0  0  0  0  0  0  0  0  0  0
   15.7570  -29.6017    0.0000 O   0  0  0  0  0  0  0  0  0  0  0  0
   17.8838  -30.1029    0.0000 C   0  0  0  0  0  0  0  0  0  0  0  0
   17.8544  -30.9275    0.0000 C   0  0  0  0  0  0  0  0  0  0  0  0
   15.6892  -31.2637    0.0000 C   0  0  2  0  0  0  0  0  0  0  0  0
   14.9860  -30.8322    0.0000 C   0  0  0  0  0  0  0  0  0  0  0  0
   14.2607  -31.2254    0.0000 N   0  0  0  0  0  0  0  0  0  0  0  0
   15.0081  -30.0075    0.0000 O   0  0  0  0  0  0  0  0  0  0  0  0
   15.6745  -32.0885    0.0000 C   0  0  0  0  0  0  0  0  0  0  0  0
   16.3815  -32.5137    0.0000 C   0  0  0  0  0  0  0  0  0  0  0  0
   16.3668  -33.3384    0.0000 N   0  0  0  0  0  0  0  0  0  0  0  0
   13.5488  -30.8059    0.0000 C   0  0  2  0  0  0  0  0  0  0  0  0
   13.5561  -29.9809    0.0000 C   0  0  0  0  0  0  0  0  0  0  0  0
   12.8455  -29.5620    0.0000 N   0  0  0  0  0  0  0  0  0  0  0  0
   14.2743  -29.5749    0.0000 O   0  0  0  0  0  0  0  0  0  0  0  0
   12.8343  -31.2184    0.0000 C   0  0  0  0  0  0  0  0  0  0  0  0
   12.8343  -32.0434    0.0000 C   0  0  0  0  0  0  0  0  0  0  0  0
   12.1199  -32.4559    0.0000 N   0  0  0  0  0  0  0  0  0  0  0  0
   12.8381  -28.7357    0.0000 C   0  0  2  0  0  0  0  0  0  0  0  0
   13.5489  -28.3169    0.0000 C   0  0  0  0  0  0  0  0  0  0  0  0
   13.5414  -27.4920    0.0000 O   0  0  0  0  0  0  0  0  0  0  0  0
   14.2669  -28.7230    0.0000 N   0  0  0  0  0  0  0  0  0  0  0  0
   12.1164  -28.3361    0.0000 C   0  0  1  0  0  0  0  0  0  0  0  0
   11.4093  -28.7612    0.0000 C   0  0  0  0  0  0  0  0  0  0  0  0
   12.1017  -27.5111    0.0000 O   0  0  0  0  0  0  0  0  0  0  0  0
   15.1270  -27.6028    0.0000 C   0  0  0  0  0  0  0  0  0  0  0  0
    7.9655  -23.4665    0.0000 C   0  0  0  0  0  0  0  0  0  0  0  0
    8.6811  -23.8741    0.0000 S   0  0  0  0  0  0  0  0  0  0  0  0
    9.3932  -23.4572    0.0000 O   0  5  0  0  0  0  0  0  0  0  0  0
    8.2736  -24.5897    0.0000 O   0  0  0  0  0  0  0  0  0  0  0  0
    9.0887  -24.5897    0.0000 O   0  0  0  0  0  0  0  0  0  0  0  0
   12.2619  -23.4665    0.0000 C   0  0  0  0  0  0  0  0  0  0  0  0
   12.9776  -23.8741    0.0000 S   0  0  0  0  0  0  0  0  0  0  0  0
   13.6896  -23.4572    0.0000 O   0  5  0  0  0  0  0  0  0  0  0  0
   12.5700  -24.5897    0.0000 O   0  0  0  0  0  0  0  0  0  0  0  0
   13.3851  -24.5897    0.0000 O   0  0  0  0  0  0  0  0  0  0  0  0
   16.5583  -23.4665    0.0000 C   0  0  0  0  0  0  0  0  0  0  0  0
   17.2740  -23.8741    0.0000 S   0  0  0  0  0  0  0  0  0  0  0  0
   17.9859  -23.4572    0.0000 O   0  5  0  0  0  0  0  0  0  0  0  0
   16.8664  -24.5897    0.0000 O   0  0  0  0  0  0  0  0  0  0  0  0
   17.6814  -24.5897    0.0000 O   0  0  0  0  0  0  0  0  0  0  0  0
   17.0788  -33.7553    0.0000 C   0  0  0  0  0  0  0  0  0  0  0  0
   17.7945  -33.3477    0.0000 S   0  0  0  0  0  0  0  0  0  0  0  0
   18.5064  -33.7646    0.0000 O   0  5  0  0  0  0  0  0  0  0  0  0
   17.3870  -32.6322    0.0000 O   0  0  0  0  0  0  0  0  0  0  0  0
   18.2021  -32.6322    0.0000 O   0  0  0  0  0  0  0  0  0  0  0  0
   11.4078  -32.0390    0.0000 C   0  0  0  0  0  0  0  0  0  0  0  0
   10.6921  -32.4468    0.0000 S   0  0  0  0  0  0  0  0  0  0  0  0
    9.9802  -32.0300    0.0000 O   0  5  0  0  0  0  0  0  0  0  0  0
   11.0997  -33.1623    0.0000 O   0  0  0  0  0  0  0  0  0  0  0  0
   10.2847  -33.1623    0.0000 O   0  0  0  0  0  0  0  0  0  0  0  0
    5.8210  -27.1684    0.0000 C   0  0  0  0  0  0  0  0  0  0  0  0
    6.5356  -27.5807    0.0000 C   0  0  0  0  0  0  0  0  0  0  0  0
    6.5358  -28.4057    0.0000 C   0  0  0  0  0  0  0  0  0  0  0  0
    7.2503  -28.8179    0.0000 C   0  0  0  0  0  0  0  0  0  0  0  0
    7.2504  -29.6429    0.0000 C   0  0  0  0  0  0  0  0  0  0  0  0
    7.9647  -28.4054    0.0000 C   0  0  0  0  0  0  0  0  0  0  0  0
   19.3827  -28.4719    0.0000 C   0  0  0  0  0  0  0  0  0  0  0  0
   20.1190  -27.2473    0.0000 C   0  0  0  0  0  0  0  0  0  0  0  0
   17.1257  -31.3143    0.0000 C   0  0  0  0  0  0  0  0  0  0  0  0
   18.5538  -31.3651    0.0000 C   0  0  0  0  0  0  0  0  0  0  0  0
  1  2  1  0  0  0  0
  2  3  1  0  0  0  0
  2  4  2  0  0  0  0
  5  3  1  1  0  0  0
  5  6  1  0  0  0  0
  6  7  1  0  0  0  0
  6  8  2  0  0  0  0
  5  9  1  0  0  0  0
  9 10  1  0  0  0  0
 10 11  1  0  0  0  0
 12  7  1  6  0  0  0
 12 13  1  0  0  0  0
 13 14  1  0  0  0  0
 13 15  2  0  0  0  0
 12 16  1  0  0  0  0
 16 17  1  0  0  0  0
 16 18  1  6  0  0  0
 19 14  1  1  0  0  0
 19 20  1  0  0  0  0
 20 21  1  0  0  0  0
 20 22  2  0  0  0  0
 19 23  1  0  0  0  0
 23 24  1  0  0  0  0
 24 25  1  0  0  0  0
 26 21  1  6  0  0  0
 26 27  1  0  0  0  0
 27 28  1  0  0  0  0
 27 29  2  0  0  0  0
 26 30  1  0  0  0  0
 31 28  1  1  0  0  0
 31 32  1  0  0  0  0
 32 33  1  0  0  0  0
 32 34  2  0  0  0  0
 31 35  1  0  0  0  0
 35 36  1  0  0  0  0
 36 37  1  0  0  0  0
 38 33  1  6  0  0  0
 38 39  1  0  0  0  0
 39 40  1  0  0  0  0
 39 41  2  0  0  0  0
 38 42  1  0  0  0  0
 42 43  1  0  0  0  0
 44 40  1  1  0  0  0
 44 45  1  0  0  0  0
 45 46  1  0  0  0  0
 45 47  2  0  0  0  0
 44 48  1  0  0  0  0
 48 49  1  0  0  0  0
 50 46  1  1  0  0  0
 50 51  1  0  0  0  0
 51 52  1  0  0  0  0
 51 53  2  0  0  0  0
 50 54  1  0  0  0  0
 54 55  1  0  0  0  0
 55 56  1  0  0  0  0
 57 52  1  1  0  0  0
 57 58  1  0  0  0  0
 58 59  1  0  0  0  0
 58 60  2  0  0  0  0
 57 61  1  0  0  0  0
 61 62  1  0  0  0  0
 62 63  1  0  0  0  0
 64 59  1  1  0  0  0
 64 65  1  0  0  0  0
 65 66  2  0  0  0  0
 65 67  1  0  0  0  0
 64 68  1  0  0  0  0
 68 69  1  0  0  0  0
 68 70  1  1  0  0  0
 30 71  1  0  0  0  0
 71 67  1  0  0  0  0
 72 73  1  0  0  0  0
 73 74  1  0  0  0  0
 73 75  2  0  0  0  0
 73 76  2  0  0  0  0
 72 11  1  0  0  0  0
 77 78  1  0  0  0  0
 78 79  1  0  0  0  0
 78 80  2  0  0  0  0
 78 81  2  0  0  0  0
 77 25  1  0  0  0  0
 82 83  1  0  0  0  0
 83 84  1  0  0  0  0
 83 85  2  0  0  0  0
 83 86  2  0  0  0  0
 82 37  1  0  0  0  0
 87 88  1  0  0  0  0
 88 89  1  0  0  0  0
 88 90  2  0  0  0  0
 88 91  2  0  0  0  0
 87 56  1  0  0  0  0
 92 93  1  0  0  0  0
 93 94  1  0  0  0  0
 93 95  2  0  0  0  0
 93 96  2  0  0  0  0
 92 63  1  0  0  0  0
  1 97  1  0  0  0  0
 97 98  1  0  0  0  0
 98 99  1  0  0  0  0
 99100  1  0  0  0  0
100101  1  0  0  0  0
100102  1  0  0  0  0
 43103  1  0  0  0  0
 43104  1  0  0  0  0
 49105  1  0  0  0  0
 49106  1  0  0  0  0
M  CHG  5  74  -1  79  -1  84  -1  89  -1  94  -1
M  END

>  <ACTIVITY>
5.00
$$$$
59063

  Mrv0541 05041708512D          

 84 85  0  0  1  0            999 V2000
   18.8568  -12.2181    0.0000 N   0  0  0  0  0  0  0  0  0  0  0  0
   18.1775   -8.4440    0.0000 C   0  0  1  0  0  0  0  0  0  0  0  0
   18.8874   -8.0294    0.0000 C   0  0  0  0  0  0  0  0  0  0  0  0
   18.8826   -7.2052    0.0000 O   0  0  0  0  0  0  0  0  0  0  0  0
   17.4607   -8.0333    0.0000 N   0  0  0  0  0  0  0  0  0  0  0  0
   22.4225  -11.8572    0.0000 C   0  0  1  0  0  0  0  0  0  0  0  0
   20.9963  -11.8495    0.0000 N   0  0  0  0  0  0  0  0  0  0  0  0
   20.2808  -12.2578    0.0000 C   0  0  2  0  0  0  0  0  0  0  0  0
   19.5723  -11.8418    0.0000 C   0  0  0  0  0  0  0  0  0  0  0  0
   19.5695  -11.1557    0.0000 O   0  0  0  0  0  0  0  0  0  0  0  0
   21.7093  -12.2614    0.0000 C   0  0  0  0  0  0  0  0  0  0  0  0
   21.7072  -13.0900    0.0000 O   0  0  0  0  0  0  0  0  0  0  0  0
   22.4173  -11.0287    0.0000 N   0  0  0  0  0  0  0  0  0  0  0  0
   23.1333  -10.6102    0.0000 C   0  0  0  0  0  0  0  0  0  0  0  0
   23.8498  -11.0201    0.0000 O   0  0  0  0  0  0  0  0  0  0  0  0
   23.1023   -8.6035    0.0000 C   0  0  1  0  0  0  0  0  0  0  0  0
   19.6038   -8.4395    0.0000 N   0  0  0  0  0  0  0  0  0  0  0  0
   20.3201   -8.0209    0.0000 C   0  0  1  0  0  0  0  0  0  0  0  0
   21.0321   -8.4352    0.0000 C   0  0  0  0  0  0  0  0  0  0  0  0
   21.0106   -9.2595    0.0000 O   0  0  0  0  0  0  0  0  0  0  0  0
   21.7442   -8.0165    0.0000 N   0  0  0  0  0  0  0  0  0  0  0  0
   23.7859   -8.1448    0.0000 C   0  0  0  0  0  0  0  0  0  0  0  0
   24.5271   -8.5084    0.0000 C   0  0  0  0  0  0  0  0  0  0  0  0
   25.2150   -8.0496    0.0000 C   0  0  0  0  0  0  0  0  0  0  0  0
   24.5417   -9.3307    0.0000 C   0  0  0  0  0  0  0  0  0  0  0  0
   20.3183   -7.1967    0.0000 C   0  0  0  0  0  0  0  0  0  0  0  0
   21.0314   -6.7808    0.0000 C   0  0  0  0  0  0  0  0  0  0  0  0
   21.7419   -7.1954    0.0000 C   0  0  0  0  0  0  0  0  0  0  0  0
   22.4551   -6.7794    0.0000 C   0  0  0  0  0  0  0  0  0  0  0  0
   22.4532   -5.9553    0.0000 C   0  0  0  0  0  0  0  0  0  0  0  0
   21.7382   -5.5427    0.0000 C   0  0  0  0  0  0  0  0  0  0  0  0
   21.0250   -5.9585    0.0000 C   0  0  0  0  0  0  0  0  0  0  0  0
   23.1411  -12.2669    0.0000 C   0  0  0  0  0  0  0  0  0  0  0  0
   23.1414  -13.0955    0.0000 C   0  0  0  0  0  0  0  0  0  0  0  0
   23.8555  -13.5052    0.0000 N   0  0  0  0  0  0  0  0  0  0  0  0
   20.2757  -13.0864    0.0000 C   0  0  0  0  0  0  0  0  0  0  0  0
   19.5591  -13.4918    0.0000 C   0  0  0  0  0  0  0  0  0  0  0  0
   19.5539  -14.3204    0.0000 N   0  0  0  0  0  0  0  0  0  0  0  0
   18.1799   -9.2683    0.0000 C   0  0  0  0  0  0  0  0  0  0  0  0
   18.8953   -9.6804    0.0000 C   0  0  0  0  0  0  0  0  0  0  0  0
   19.6168   -9.3073    0.0000 N   0  0  0  0  0  0  0  0  0  0  0  0
   18.1561  -11.7744    0.0000 C   0  0  1  0  0  0  0  0  0  0  0  0
   18.1477  -10.9081    0.0000 C   0  0  1  0  0  0  0  0  0  0  0  0
   17.4255  -12.1586    0.0000 C   0  0  0  0  0  0  0  0  0  0  0  0
   16.7291  -11.7193    0.0000 N   0  0  0  0  0  0  0  0  0  0  0  0
   17.4383  -12.9865    0.0000 O   0  0  0  0  0  0  0  0  0  0  0  0
   16.7635  -10.8957    0.0000 C   0  0  0  0  0  0  0  0  0  0  0  0
   18.8783  -10.5238    0.0000 C   0  0  0  0  0  0  0  0  0  0  0  0
   17.4513  -10.4686    0.0000 O   0  0  0  0  0  0  0  0  0  0  0  0
   16.0629  -10.4520    0.0000 C   0  0  0  0  0  0  0  0  0  0  0  0
   16.5097   -8.0296    0.0000 C   0  0  0  0  0  0  0  0  0  0  0  0
   16.1416   -7.3138    0.0000 O   0  0  0  0  0  0  0  0  0  0  0  0
   16.0923   -8.7851    0.0000 C   0  0  1  0  0  0  0  0  0  0  0  0
   15.3575   -8.3490    0.0000 N   0  0  0  0  0  0  0  0  0  0  0  0
   14.6455   -8.7632    0.0000 C   0  0  0  0  0  0  0  0  0  0  0  0
   13.9334   -8.3490    0.0000 C   0  0  1  0  0  0  0  0  0  0  0  0
   14.6455   -9.5876    0.0000 O   0  0  0  0  0  0  0  0  0  0  0  0
   13.2188   -8.7624    0.0000 N   0  0  0  0  0  0  0  0  0  0  0  0
   12.5052   -8.3472    0.0000 C   0  0  0  0  0  0  0  0  0  0  0  0
   13.9344   -7.5248    0.0000 C   0  0  0  0  0  0  0  0  0  0  0  0
   14.6490   -7.1156    0.0000 C   0  0  0  0  0  0  0  0  0  0  0  0
   14.6500   -6.2871    0.0000 N   0  0  0  0  0  0  0  0  0  0  0  0
   12.5062   -7.5230    0.0000 O   0  0  0  0  0  0  0  0  0  0  0  0
   11.7907   -8.7607    0.0000 C   0  0  1  0  0  0  0  0  0  0  0  0
   11.0727   -8.3455    0.0000 N   0  0  0  0  0  0  0  0  0  0  0  0
   11.7897   -9.7990    0.0000 C   0  0  2  0  0  0  0  0  0  0  0  0
   12.5032  -10.2142    0.0000 O   0  0  0  0  0  0  0  0  0  0  0  0
   11.0706  -10.2123    0.0000 C   0  0  0  0  0  0  0  0  0  0  0  0
   10.3583   -8.7589    0.0000 C   0  0  0  0  0  0  0  0  0  0  0  0
    9.6446   -8.3481    0.0000 C   0  0  1  0  0  0  0  0  0  0  0  0
   10.3572   -9.5831    0.0000 O   0  0  0  0  0  0  0  0  0  0  0  0
    8.9300   -8.7571    0.0000 N   0  0  0  0  0  0  0  0  0  0  0  0
    8.2164   -8.3463    0.0000 C   0  0  0  0  0  0  0  0  0  0  0  0
    7.5019   -8.7553    0.0000 C   0  0  0  0  0  0  0  0  0  0  0  0
    9.6457   -7.5195    0.0000 C   0  0  0  0  0  0  0  0  0  0  0  0
   10.3602   -7.1104    0.0000 C   0  0  0  0  0  0  0  0  0  0  0  0
   10.3613   -6.2818    0.0000 N   0  0  0  0  0  0  0  0  0  0  0  0
    8.2174   -7.5177    0.0000 O   0  0  0  0  0  0  0  0  0  0  0  0
    6.7839   -8.3444    0.0000 C   0  0  0  0  0  0  0  0  0  0  0  0
    6.0694   -8.7535    0.0000 C   0  0  0  0  0  0  0  0  0  0  0  0
    5.3559   -8.3427    0.0000 C   0  0  0  0  0  0  0  0  0  0  0  0
    4.6412   -8.7517    0.0000 C   0  0  0  0  0  0  0  0  0  0  0  0
    3.9277   -8.3409    0.0000 C   0  0  0  0  0  0  0  0  0  0  0  0
    4.6402   -9.5760    0.0000 C   0  0  0  0  0  0  0  0  0  0  0  0
  2  5  1  0  0  0  0
 42 43  1  0  0  0  0
 22 23  1  0  0  0  0
 42 44  1  0  0  0  0
  6 13  1  0  0  0  0
 44 45  1  0  0  0  0
 23 24  1  0  0  0  0
 44 46  2  0  0  0  0
  3  4  2  0  0  0  0
 45 47  1  0  0  0  0
 23 25  1  0  0  0  0
 43 48  1  0  0  0  0
 43 49  1  6  0  0  0
 13 14  1  0  0  0  0
 18 26  1  6  0  0  0
 47 50  1  0  0  0  0
 53 50  1  0  0  0  0
  7  8  1  0  0  0  0
  5 51  1  0  0  0  0
 26 27  1  0  0  0  0
 51 52  2  0  0  0  0
 14 15  2  0  0  0  0
 51 53  1  0  0  0  0
  8  9  1  0  0  0  0
 53 54  1  6  0  0  0
  9 10  2  0  0  0  0
 54 55  1  0  0  0  0
  3  2  1  0  0  0  0
 55 56  1  0  0  0  0
  7 11  1  0  0  0  0
 55 57  2  0  0  0  0
 27 28  2  0  0  0  0
 56 58  1  0  0  0  0
 28 29  1  0  0  0  0
 58 59  1  0  0  0  0
 29 30  2  0  0  0  0
 56 60  1  1  0  0  0
 30 31  1  0  0  0  0
 60 61  1  0  0  0  0
 31 32  2  0  0  0  0
 61 62  1  0  0  0  0
 32 27  1  0  0  0  0
 59 63  2  0  0  0  0
 59 64  1  0  0  0  0
  6 33  1  1  0  0  0
 64 65  1  6  0  0  0
 11 12  2  0  0  0  0
 64 66  1  0  0  0  0
 33 34  1  0  0  0  0
 66 67  1  6  0  0  0
 18 19  1  0  0  0  0
 66 68  1  0  0  0  0
 34 35  1  0  0  0  0
 65 69  1  0  0  0  0
 19 20  2  0  0  0  0
 69 70  1  0  0  0  0
  8 36  1  1  0  0  0
 69 71  2  0  0  0  0
 19 21  1  0  0  0  0
 70 72  1  0  0  0  0
 36 37  1  0  0  0  0
 72 73  1  0  0  0  0
 17 18  1  0  0  0  0
 73 74  1  0  0  0  0
 37 38  1  0  0  0  0
 70 75  1  1  0  0  0
 17  3  1  0  0  0  0
 75 76  1  0  0  0  0
  1  9  1  0  0  0  0
 76 77  1  0  0  0  0
 21 16  1  0  0  0  0
 73 78  2  0  0  0  0
  2 39  1  6  0  0  0
 74 79  1  0  0  0  0
 14 16  1  0  0  0  0
 79 80  1  0  0  0  0
 39 40  1  0  0  0  0
 80 81  1  0  0  0  0
 11  6  1  0  0  0  0
 81 82  1  0  0  0  0
 40 41  1  0  0  0  0
 82 83  1  0  0  0  0
 16 22  1  1  0  0  0
 82 84  1  0  0  0  0
 42  1  1  6  0  0  0
M  END

>  <ACTIVITY>
5.00
$$$$
66080

  Mrv0541 05041708512D          

 29 32  0  0  0  0            999 V2000
   22.2165   -8.2416    0.0000 C   0  0  0  0  0  0  0  0  0  0  0  0
   22.9341   -7.8276    0.0000 C   0  0  0  0  0  0  0  0  0  0  0  0
   22.9313   -6.9956    0.0000 C   0  0  0  0  0  0  0  0  0  0  0  0
   22.2147   -6.5858    0.0000 C   0  0  0  0  0  0  0  0  0  0  0  0
   20.9219   -8.4104    0.0000 C   0  0  0  0  0  0  0  0  0  0  0  0
   20.0970   -8.4129    0.0000 O   0  0  0  0  0  0  0  0  0  0  0  0
   21.5005   -7.8280    0.0000 C   0  0  0  0  0  0  0  0  0  0  0  0
   21.4978   -7.0032    0.0000 C   0  0  0  0  0  0  0  0  0  0  0  0
   20.9156   -6.4247    0.0000 C   0  0  0  0  0  0  0  0  0  0  0  0
   20.0906   -6.4275    0.0000 C   0  0  0  0  0  0  0  0  0  0  0  0
   19.5148   -7.8345    0.0000 C   0  0  0  0  0  0  0  0  0  0  0  0
   19.5146   -7.0134    0.0000 C   0  0  0  0  0  0  0  0  0  0  0  0
   18.8044   -6.6048    0.0000 C   0  0  0  0  0  0  0  0  0  0  0  0
   18.0940   -7.0163    0.0000 C   0  0  0  0  0  0  0  0  0  0  0  0
   18.0982   -7.8406    0.0000 C   0  0  0  0  0  0  0  0  0  0  0  0
   18.8090   -8.2454    0.0000 C   0  0  0  0  0  0  0  0  0  0  0  0
   18.8129   -9.0718    0.0000 O   0  0  0  0  0  0  0  0  0  0  0  0
   17.3848   -8.2578    0.0000 O   0  0  0  0  0  0  0  0  0  0  0  0
   16.6669   -7.8485    0.0000 C   0  0  0  0  0  0  0  0  0  0  0  0
   21.2406   -9.1729    0.0000 C   0  0  0  0  0  0  0  0  0  0  0  0
   22.2163   -9.0680    0.0000 O   0  0  0  0  0  0  0  0  0  0  0  0
   23.6505   -8.2396    0.0000 O   0  0  0  0  0  0  0  0  0  0  0  0
   23.6454   -6.5797    0.0000 O   0  0  0  0  0  0  0  0  0  0  0  0
   24.3626   -6.9902    0.0000 C   0  0  0  0  0  0  0  0  0  0  0  0
   21.2293   -5.6602    0.0000 O   0  0  0  0  0  0  0  0  0  0  0  0
   19.7698   -5.6659    0.0000 C   0  0  0  0  0  0  0  0  0  0  0  0
   20.9354   -7.1829    0.0000 O   0  0  0  0  0  0  0  0  0  0  0  0
   18.8031   -5.7784    0.0000 C   0  0  0  0  0  0  0  0  0  0  0  0
   18.0869   -5.3663    0.0000 O   0  0  0  0  0  0  0  0  0  0  0  0
 13 14  2  0  0  0  0
  3  4  2  0  0  0  0
 14 15  1  0  0  0  0
  4  8  1  0  0  0  0
 15 16  2  0  0  0  0
 16 11  1  0  0  0  0
  5  6  1  0  0  0  0
 16 17  1  0  0  0  0
  6 11  1  0  0  0  0
 15 18  1  0  0  0  0
  5  7  1  0  0  0  0
 18 19  1  0  0  0  0
  7  8  2  0  0  0  0
  5 20  1  0  0  0  0
  8  9  1  0  0  0  0
  1 21  1  0  0  0  0
  9 10  1  0  0  0  0
  2 22  1  0  0  0  0
 10 12  1  0  0  0  0
  3 23  1  0  0  0  0
  1  2  2  0  0  0  0
 23 24  1  0  0  0  0
  7  1  1  0  0  0  0
  9 25  2  0  0  0  0
 11 12  2  0  0  0  0
 10 26  1  0  0  0  0
  2  3  1  0  0  0  0
 10 27  1  0  0  0  0
  5 27  1  0  0  0  0
 12 13  1  0  0  0  0
 13 28  1  0  0  0  0
 28 29  2  0  0  0  0
M  END

>  <ACTIVITY>
5.00
$$$$
30170

  Mrv0541 05041708512D          

  2  1  0  0  0  0            999 V2000
    0.4125    0.0000    0.0000 B   0  0  0  0  0  0  0  0  0  0  0  0
   -0.4125    0.0000    0.0000 *   0  0  0  0  0  0  0  0  0  0  0  0
  1  2  3  0  0  0  0
M  END

>  <ACTIVITY>
5.00
$$$$
30169

  Mrv0541 05041708512D          

  4  3  0  0  0  0            999 V2000
    0.0000    0.8250    0.0000 *   0  0  0  0  0  0  0  0  0  0  0  0
    0.7145   -0.4125    0.0000 *   0  0  0  0  0  0  0  0  0  0  0  0
    0.0000    0.0000    0.0000 B   0  0  0  0  0  0  0  0  0  0  0  0
   -0.7145   -0.4125    0.0000 *   0  0  0  0  0  0  0  0  0  0  0  0
  3  1  1  0  0  0  0
  3  2  1  0  0  0  0
  3  4  1  0  0  0  0
M  END

>  <ACTIVITY>
5.00
$$$$
58596
(2S,3R)-3-(phosphonatooxy)-2-(7-sulfanylheptanamido)butanoate
  Mrv0541 05041708512D          

 21 20  0  0  0  0            999 V2000
   -0.9993    0.0600    0.0000 C   0  0  2  0  0  0  0  0  0  0  0  0
   -1.7138   -0.3525    0.0000 C   0  0  1  0  0  0  0  0  0  0  0  0
   -0.2848   -0.3525    0.0000 N   0  0  0  0  0  0  0  0  0  0  0  0
   -0.9993    0.8850    0.0000 C   0  0  0  0  0  0  0  0  0  0  0  0
   -1.7138   -1.1775    0.0000 C   0  0  0  0  0  0  0  0  0  0  0  0
    0.4297    0.0600    0.0000 C   0  0  0  0  0  0  0  0  0  0  0  0
   -0.2848    1.2975    0.0000 O   0  5  0  0  0  0  0  0  0  0  0  0
   -1.7138    1.2975    0.0000 O   0  0  0  0  0  0  0  0  0  0  0  0
    1.1441   -0.3525    0.0000 C   0  0  0  0  0  0  0  0  0  0  0  0
    0.4297    0.8850    0.0000 O   0  0  0  0  0  0  0  0  0  0  0  0
    1.8586    0.0600    0.0000 C   0  0  0  0  0  0  0  0  0  0  0  0
    2.5731   -0.3525    0.0000 C   0  0  0  0  0  0  0  0  0  0  0  0
    3.2875    0.0600    0.0000 C   0  0  0  0  0  0  0  0  0  0  0  0
    4.0020   -0.3525    0.0000 C   0  0  0  0  0  0  0  0  0  0  0  0
    4.7165    0.0600    0.0000 C   0  0  0  0  0  0  0  0  0  0  0  0
    5.4310   -0.3525    0.0000 S   0  0  0  0  0  0  0  0  0  0  0  0
   -2.4282    0.0600    0.0000 O   0  0  0  0  0  0  0  0  0  0  0  0
   -3.2532    0.8850    0.0000 O   0  5  0  0  0  0  0  0  0  0  0  0
   -3.2532   -0.7650    0.0000 O   0  5  0  0  0  0  0  0  0  0  0  0
   -3.2532    0.0600    0.0000 P   0  0  0  0  0  0  0  0  0  0  0  0
   -4.0782    0.0600    0.0000 O   0  0  0  0  0  0  0  0  0  0  0  0
  1  2  1  0  0  0  0
  1  3  1  1  0  0  0
  1  4  1  0  0  0  0
  2 17  1  1  0  0  0
  2  5  1  0  0  0  0
  3  6  1  0  0  0  0
  4  7  1  0  0  0  0
  4  8  2  0  0  0  0
  6  9  1  0  0  0  0
  6 10  2  0  0  0  0
  9 11  1  0  0  0  0
 11 12  1  0  0  0  0
 12 13  1  0  0  0  0
 13 14  1  0  0  0  0
 14 15  1  0  0  0  0
 15 16  1  0  0  0  0
 17 20  1  0  0  0  0
 20 18  1  0  0  0  0
 20 19  1  0  0  0  0
 20 21  2  0  0  0  0
M  CHG  3   7  -1  18  -1  19  -1
M  END

>  <ACTIVITY>
5.00
$$$$
77014

  Mrv0541 05041708512D          

  1  0  0  0  0  0            999 V2000
   26.6641   -9.6305    0.0000 B   0  0  0  0  0 15  0  0  0  0  0  0
M  ISO  1   1  10
M  END

>  <ACTIVITY>
5.00
$$$$
277842

  Mrv0541 05041708512D          

 67 69  0  0  1  0            999 V2000
   17.7630   -4.0343    0.0000 C   0  0  1  0  0  0  0  0  0  0  0  0
   18.4811   -3.6174    0.0000 C   0  0  1  0  0  0  0  0  0  0  0  0
   17.0423   -3.6208    0.0000 O   0  0  0  0  0  0  0  0  0  0  0  0
   17.7630   -4.8579    0.0000 C   0  0  0  0  0  0  0  0  0  0  0  0
   18.4811   -2.7938    0.0000 C   0  0  2  0  0  0  0  0  0  0  0  0
   19.1982   -4.0309    0.0000 C   0  0  0  0  0  0  0  0  0  0  0  0
   17.0423   -2.7938    0.0000 C   0  0  1  0  0  0  0  0  0  0  0  0
   17.0492   -5.2714    0.0000 C   0  0  1  0  0  0  0  0  0  0  0  0
   17.7630   -2.3803    0.0000 C   0  0  0  0  0  0  0  0  0  0  0  0
   19.1948   -2.3769    0.0000 O   0  0  0  0  0  0  0  0  0  0  0  0
   19.1982   -4.8579    0.0000 O   0  0  0  0  0  0  0  0  0  0  0  0
   19.9120   -3.6174    0.0000 O   0  0  0  0  0  0  0  0  0  0  0  0
   16.3319   -2.3838    0.0000 C   0  0  0  0  0  0  0  0  0  0  0  0
   17.0388   -1.9667    0.0000 O   0  0  0  0  0  0  0  0  0  0  0  0
   17.0526   -6.0984    0.0000 O   0  0  0  0  0  0  0  0  0  0  0  0
   16.3388   -4.8648    0.0000 C   0  0  0  0  0  0  0  0  0  0  0  0
   15.6181   -2.7972    0.0000 C   0  0  2  0  0  0  0  0  0  0  0  0
   16.3388   -6.5154    0.0000 C   0  0  1  0  0  0  0  0  0  0  0  0
   15.6250   -5.2748    0.0000 C   0  0  0  0  0  0  0  0  0  0  0  0
   14.9002   -2.3872    0.0000 C   0  0  0  0  0  0  0  0  0  0  0  0
   15.6181   -3.6243    0.0000 O   0  0  0  0  0  0  0  0  0  0  0  0
   16.3423   -7.3465    0.0000 C   0  0  2  0  0  0  0  0  0  0  0  0
   15.6250   -6.1019    0.0000 O   0  0  0  0  0  0  0  0  0  0  0  0
   14.9111   -4.8724    0.0000 C   0  0  0  0  0  0  0  0  0  0  0  0
   14.1864   -2.8007    0.0000 C   0  0  2  0  0  0  0  0  0  0  0  0
   15.6285   -7.7602    0.0000 C   0  0  2  0  0  0  0  0  0  0  0  0
   17.0603   -7.7524    0.0000 O   0  0  0  0  0  0  0  0  0  0  0  0
   14.9111   -6.5154    0.0000 C   0  0  1  0  0  0  0  0  0  0  0  0
   14.1933   -5.2859    0.0000 C   0  0  0  0  0  0  0  0  0  0  0  0
   13.4727   -2.3907    0.0000 C   0  0  1  0  0  0  0  0  0  0  0  0
   14.1899   -3.6277    0.0000 O   0  0  0  0  0  0  0  0  0  0  0  0
   14.9111   -7.3465    0.0000 C   0  0  1  0  0  0  0  0  0  0  0  0
   15.6285   -8.5870    0.0000 N   0  0  0  0  0  0  0  0  0  0  0  0
   14.1899   -6.1095    0.0000 C   0  0  0  0  0  0  0  0  0  0  0  0
   13.4795   -4.8758    0.0000 C   0  0  0  0  0  0  0  0  0  0  0  0
   12.7623   -2.8083    0.0000 C   0  0  0  0  0  0  0  0  0  0  0  0
   13.4727   -1.5636    0.0000 O   0  0  0  0  0  0  0  0  0  0  0  0
   14.1933   -7.7635    0.0000 O   0  0  0  0  0  0  0  0  0  0  0  0
   12.7692   -5.2894    0.0000 C   0  0  0  0  0  0  0  0  0  0  0  0
   12.0442   -2.3981    0.0000 C   0  0  0  0  0  0  0  0  0  0  0  0
   12.0553   -4.8793    0.0000 C   0  0  0  0  0  0  0  0  0  0  0  0
   11.3304   -2.8118    0.0000 C   0  0  2  0  0  0  0  0  0  0  0  0
   11.3373   -5.2928    0.0000 C   0  0  0  0  0  0  0  0  0  0  0  0
   10.6166   -2.4017    0.0000 C   0  0  0  0  0  0  0  0  0  0  0  0
   11.3304   -3.6387    0.0000 O   0  0  0  0  0  0  0  0  0  0  0  0
   10.6235   -4.8827    0.0000 C   0  0  0  0  0  0  0  0  0  0  0  0
    9.9028   -2.8152    0.0000 C   0  0  2  0  0  0  0  0  0  0  0  0
    9.9097   -5.2963    0.0000 C   0  0  0  0  0  0  0  0  0  0  0  0
    9.1883   -2.4051    0.0000 C   0  0  0  0  0  0  0  0  0  0  0  0
    9.9063   -3.6422    0.0000 O   0  0  0  0  0  0  0  0  0  0  0  0
    9.1994   -4.8861    0.0000 C   0  0  0  0  0  0  0  0  0  0  0  0
    8.4745   -2.8187    0.0000 C   0  0  0  0  0  0  0  0  0  0  0  0
    8.4779   -5.2997    0.0000 C   0  0  0  0  0  0  0  0  0  0  0  0
    7.7607   -2.4086    0.0000 O   0  0  0  0  0  0  0  0  0  0  0  0
    8.4745   -3.6456    0.0000 O   0  0  0  0  0  0  0  0  0  0  0  0
    7.7641   -4.8896    0.0000 C   0  0  0  0  0  0  0  0  0  0  0  0
    7.0469   -2.8221    0.0000 C   0  0  2  0  0  0  0  0  0  0  0  0
    7.0504   -5.3032    0.0000 C   0  0  0  0  0  0  0  0  0  0  0  0
    7.0469   -3.6491    0.0000 C   0  0  1  0  0  0  0  0  0  0  0  0
    6.3290   -2.4086    0.0000 C   0  0  0  0  0  0  0  0  0  0  0  0
    6.3290   -4.8896    0.0000 C   0  0  1  0  0  0  0  0  0  0  0  0
    6.3290   -4.0627    0.0000 C   0  0  1  0  0  0  0  0  0  0  0  0
    7.7641   -4.0627    0.0000 C   0  0  0  0  0  0  0  0  0  0  0  0
    5.6201   -5.3032    0.0000 C   0  0  0  0  0  0  0  0  0  0  0  0
    5.6201   -3.6491    0.0000 O   0  0  0  0  0  0  0  0  0  0  0  0
   18.4719   -4.4452    0.0000 H   0  0  0  0  0  0  0  0  0  0  0  0
   20.6265   -4.0299    0.0000 C   0  0  0  0  0  0  0  0  0  0  0  0
  1  2  1  0  0  0  0
  1  3  1  0  0  0  0
  1  4  1  0  0  0  0
  2  5  1  0  0  0  0
  2  6  1  1  0  0  0
  3  7  1  0  0  0  0
  4  8  1  0  0  0  0
  5  9  1  0  0  0  0
  5 10  1  6  0  0  0
  6 11  2  0  0  0  0
  6 12  1  0  0  0  0
  7 13  1  0  0  0  0
  7 14  1  1  0  0  0
  8 15  1  1  0  0  0
  8 16  1  0  0  0  0
 13 17  1  0  0  0  0
 18 15  1  1  0  0  0
 16 19  2  0  0  0  0
 17 20  1  0  0  0  0
 17 21  1  1  0  0  0
 18 22  1  0  0  0  0
 18 23  1  0  0  0  0
 19 24  1  0  0  0  0
 20 25  1  0  0  0  0
 22 26  1  0  0  0  0
 22 27  1  1  0  0  0
 23 28  1  0  0  0  0
 24 29  2  0  0  0  0
 25 30  1  0  0  0  0
 25 31  1  1  0  0  0
 26 32  1  0  0  0  0
 26 33  1  1  0  0  0
 28 34  1  1  0  0  0
 29 35  1  0  0  0  0
 30 36  1  0  0  0  0
 30 37  1  1  0  0  0
 32 38  1  6  0  0  0
 35 39  2  0  0  0  0
 36 40  1  0  0  0  0
 39 41  1  0  0  0  0
 40 42  1  0  0  0  0
 41 43  2  0  0  0  0
 42 44  1  0  0  0  0
 42 45  1  1  0  0  0
 43 46  1  0  0  0  0
 44 47  1  0  0  0  0
 46 48  2  0  0  0  0
 47 49  1  0  0  0  0
 47 50  1  1  0  0  0
 48 51  1  0  0  0  0
 49 52  1  0  0  0  0
 51 53  2  0  0  0  0
 52 54  1  0  0  0  0
 52 55  2  0  0  0  0
 53 56  1  0  0  0  0
 54 57  1  0  0  0  0
 56 58  2  0  0  0  0
 57 59  1  0  0  0  0
 57 60  1  6  0  0  0
 58 61  1  0  0  0  0
 59 62  1  0  0  0  0
 59 63  1  6  0  0  0
 61 64  1  6  0  0  0
 62 65  1  1  0  0  0
  7  9  1  0  0  0  0
 28 32  1  0  0  0  0
 61 62  1  0  0  0  0
  1 66  1  1  0  0  0
 12 67  1  0  0  0  0
M  END

>  <ACTIVITY>
5.00
$$$$
60608

  Mrv0541 05041708512D          

 37 39  0  0  0  0            999 V2000
   12.3357   -7.4380    0.0000 C   0  0  0  0  0  0  0  0  0  0  0  0
   13.0502   -7.0255    0.0000 C   0  0  0  0  0  0  0  0  0  0  0  0
   13.0502   -6.2005    0.0000 C   0  0  0  0  0  0  0  0  0  0  0  0
   12.3357   -5.7880    0.0000 C   0  0  0  0  0  0  0  0  0  0  0  0
   11.6212   -6.2005    0.0000 C   0  0  0  0  0  0  0  0  0  0  0  0
   11.6212   -7.0255    0.0000 C   0  0  0  0  0  0  0  0  0  0  0  0
   13.7646   -5.7880    0.0000 N   0  0  0  0  0  0  0  0  0  0  0  0
   10.9069   -7.4380    0.0000 C   0  0  0  0  0  0  0  0  0  0  0  0
   10.9069   -5.7880    0.0000 O   0  0  0  0  0  0  0  0  0  0  0  0
   10.1924   -6.2005    0.0000 C   0  0  0  0  0  0  0  0  0  0  0  0
   10.1924   -7.0255    0.0000 C   0  0  0  0  0  0  0  0  0  0  0  0
    9.4779   -7.4380    0.0000 C   0  0  0  0  0  0  0  0  0  0  0  0
    9.5074   -5.7880    0.0000 C   0  0  0  0  0  0  0  0  0  0  0  0
    8.7929   -6.2005    0.0000 C   0  0  0  0  0  0  0  0  0  0  0  0
    8.7635   -7.0255    0.0000 C   0  0  0  0  0  0  0  0  0  0  0  0
    8.0786   -5.7880    0.0000 N   0  3  0  0  0  0  0  0  0  0  0  0
   10.9069   -8.8598    0.0000 C   0  0  0  0  0  0  0  0  0  0  0  0
   10.1924   -9.2721    0.0000 C   0  0  0  0  0  0  0  0  0  0  0  0
   10.1924  -10.0971    0.0000 C   0  0  0  0  0  0  0  0  0  0  0  0
   10.9069  -10.5096    0.0000 C   0  0  0  0  0  0  0  0  0  0  0  0
   11.6214  -10.0971    0.0000 C   0  0  0  0  0  0  0  0  0  0  0  0
   11.6214   -9.2721    0.0000 C   0  0  0  0  0  0  0  0  0  0  0  0
   12.3357   -8.8598    0.0000 C   0  0  0  0  0  0  0  0  0  0  0  0
   12.3357   -8.0348    0.0000 O   0  0  0  0  0  0  0  0  0  0  0  0
   13.0502   -9.2721    0.0000 O   0  0  0  0  0  0  0  0  0  0  0  0
    8.0786   -4.9630    0.0000 C   0  0  0  0  0  0  0  0  0  0  0  0
    7.3640   -4.5505    0.0000 C   0  0  0  0  0  0  0  0  0  0  0  0
    7.3640   -6.2005    0.0000 C   0  0  0  0  0  0  0  0  0  0  0  0
    7.3640   -7.0255    0.0000 C   0  0  0  0  0  0  0  0  0  0  0  0
   14.4791   -6.2005    0.0000 C   0  0  0  0  0  0  0  0  0  0  0  0
   14.4791   -7.0255    0.0000 C   0  0  0  0  0  0  0  0  0  0  0  0
   13.7646   -4.9630    0.0000 C   0  0  0  0  0  0  0  0  0  0  0  0
   13.0501   -4.5505    0.0000 C   0  0  0  0  0  0  0  0  0  0  0  0
   10.9069  -11.3346    0.0000 N   0  0  0  0  0  0  0  0  0  0  0  0
   10.1924  -11.7471    0.0000 C   0  0  0  0  0  0  0  0  0  0  0  0
    9.4779  -12.1596    0.0000 S   0  0  0  0  0  0  0  0  0  0  0  0
    9.3105   -4.6451    0.0000 Cl  0  5  0  0  0  0  0  0  0  0  0  0
  1  2  2  0  0  0  0
  1  6  1  0  0  0  0
  4  5  1  0  0  0  0
  2  3  1  0  0  0  0
  3  4  2  0  0  0  0
  3  7  1  0  0  0  0
  8  6  1  0  0  0  0
  6  5  2  0  0  0  0
  5  9  1  0  0  0  0
  8 11  2  0  0  0  0
  9 10  1  0  0  0  0
 12 11  1  0  0  0  0
 11 10  1  0  0  0  0
 10 13  2  0  0  0  0
 12 15  2  0  0  0  0
 15 14  1  0  0  0  0
 14 16  2  0  0  0  0
 14 13  1  0  0  0  0
  8 17  1  0  0  0  0
 17 18  2  0  0  0  0
 17 22  1  0  0  0  0
 18 19  1  0  0  0  0
 19 20  2  0  0  0  0
 20 21  1  0  0  0  0
 21 22  2  0  0  0  0
 22 23  1  0  0  0  0
 23 24  2  0  0  0  0
 23 25  1  0  0  0  0
 16 26  1  0  0  0  0
 26 27  1  0  0  0  0
 16 28  1  0  0  0  0
 28 29  1  0  0  0  0
  7 30  1  0  0  0  0
 30 31  1  0  0  0  0
  7 32  1  0  0  0  0
 32 33  1  0  0  0  0
 20 34  1  0  0  0  0
 34 35  2  0  0  0  0
 35 36  2  0  0  0  0
M  CHG  2  16   1  37  -1
M  END

>  <ACTIVITY>
5.00
$$$$
60609

  Mrv0541 05041708512D          

 36 39  0  0  0  0            999 V2000
   12.3154   -7.4245    0.0000 C   0  0  0  0  0  0  0  0  0  0  0  0
   13.0279   -7.0086    0.0000 C   0  0  0  0  0  0  0  0  0  0  0  0
   13.0240   -6.1836    0.0000 C   0  0  0  0  0  0  0  0  0  0  0  0
   12.3076   -5.7745    0.0000 C   0  0  0  0  0  0  0  0  0  0  0  0
   11.5950   -6.1904    0.0000 C   0  0  0  0  0  0  0  0  0  0  0  0
   11.5989   -7.0154    0.0000 C   0  0  0  0  0  0  0  0  0  0  0  0
   13.7364   -5.7678    0.0000 N   0  0  0  0  0  0  0  0  0  0  0  0
   10.8866   -7.4312    0.0000 C   0  0  0  0  0  0  0  0  0  0  0  0
   10.8788   -5.7813    0.0000 O   0  0  0  0  0  0  0  0  0  0  0  0
   10.1662   -6.1971    0.0000 C   0  0  0  0  0  0  0  0  0  0  0  0
   10.1701   -7.0221    0.0000 C   0  0  0  0  0  0  0  0  0  0  0  0
    9.4576   -7.4380    0.0000 C   0  0  0  0  0  0  0  0  0  0  0  0
    9.4793   -5.7879    0.0000 C   0  0  0  0  0  0  0  0  0  0  0  0
    8.7667   -6.2037    0.0000 C   0  0  0  0  0  0  0  0  0  0  0  0
    8.7412   -7.0289    0.0000 C   0  0  0  0  0  0  0  0  0  0  0  0
    8.0505   -5.7946    0.0000 N   0  3  0  0  0  0  0  0  0  0  0  0
   10.8933   -8.8530    0.0000 C   0  0  0  0  0  0  0  0  0  0  0  0
   10.1807   -9.2688    0.0000 C   0  0  0  0  0  0  0  0  0  0  0  0
   10.1846  -10.0938    0.0000 C   0  0  0  0  0  0  0  0  0  0  0  0
   10.9011  -10.5029    0.0000 C   0  0  0  0  0  0  0  0  0  0  0  0
   11.6136  -10.0870    0.0000 C   0  0  0  0  0  0  0  0  0  0  0  0
   11.6097   -9.2620    0.0000 C   0  0  0  0  0  0  0  0  0  0  0  0
   12.3221   -8.8463    0.0000 C   0  0  0  0  0  0  0  0  0  0  0  0
   12.3182   -8.0213    0.0000 O   0  0  0  0  0  0  0  0  0  0  0  0
   13.0385   -9.2553    0.0000 O   0  0  0  0  0  0  0  0  0  0  0  0
    8.0466   -4.9696    0.0000 C   0  0  0  0  0  0  0  0  0  0  0  0
    7.3301   -4.5605    0.0000 C   0  0  0  0  0  0  0  0  0  0  0  0
    7.3379   -6.2105    0.0000 C   0  0  0  0  0  0  0  0  0  0  0  0
    7.3418   -7.0355    0.0000 C   0  0  0  0  0  0  0  0  0  0  0  0
   14.4529   -6.1769    0.0000 C   0  0  0  0  0  0  0  0  0  0  0  0
   14.4568   -7.0019    0.0000 C   0  0  0  0  0  0  0  0  0  0  0  0
   13.7325   -4.9428    0.0000 C   0  0  0  0  0  0  0  0  0  0  0  0
   13.0161   -4.5337    0.0000 C   0  0  0  0  0  0  0  0  0  0  0  0
    9.4721  -10.5096    0.0000 N   0  0  0  0  0  0  0  0  0  0  0  0
    9.4721  -11.3347    0.0000 C   0  0  0  0  0  0  0  0  0  0  0  0
    9.4721  -12.1597    0.0000 S   0  0  0  0  0  0  0  0  0  0  0  0
  1  2  2  0  0  0  0
  1  6  1  0  0  0  0
  4  5  1  0  0  0  0
  2  3  1  0  0  0  0
  3  4  2  0  0  0  0
  3  7  1  0  0  0  0
  8  6  1  0  0  0  0
  6  5  2  0  0  0  0
  5  9  1  0  0  0  0
  8 11  2  0  0  0  0
  9 10  1  0  0  0  0
 12 11  1  0  0  0  0
 11 10  1  0  0  0  0
 10 13  2  0  0  0  0
 12 15  2  0  0  0  0
 15 14  1  0  0  0  0
 14 16  2  0  0  0  0
 14 13  1  0  0  0  0
  8 17  1  0  0  0  0
 17 18  2  0  0  0  0
 17 22  1  0  0  0  0
 18 19  1  0  0  0  0
 19 20  2  0  0  0  0
 20 21  1  0  0  0  0
 21 22  2  0  0  0  0
 22 23  1  0  0  0  0
 23 24  2  0  0  0  0
 23 25  1  0  0  0  0
 16 26  1  0  0  0  0
 26 27  1  0  0  0  0
 16 28  1  0  0  0  0
 28 29  1  0  0  0  0
  7 30  1  0  0  0  0
 30 31  1  0  0  0  0
  7 32  1  0  0  0  0
 32 33  1  0  0  0  0
 19 34  1  0  0  0  0
 34 35  2  0  0  0  0
 35 36  2  0  0  0  0
M  CHG  1  16   1
M  END

>  <ACTIVITY>
5.00
$$$$
569624

  Mrv0541 05041708512D          

 64 67  0  0  1  0            999 V2000
   12.4642   -7.1226    0.0000 C   0  0  1  0  0  0  0  0  0  0  0  0
   13.1271   -7.6134    0.0000 O   0  0  0  0  0  0  0  0  0  0  0  0
   13.7985   -7.1333    0.0000 C   0  0  0  0  0  0  0  0  0  0  0  0
   11.7601   -6.7432    0.0000 O   0  0  0  0  0  0  0  0  0  0  0  0
   11.0498   -7.1630    0.0000 C   0  0  1  0  0  0  0  0  0  0  0  0
   11.0625   -7.9831    0.0000 C   0  0  2  0  0  0  0  0  0  0  0  0
   11.7747   -8.3901    0.0000 C   0  0  1  0  0  0  0  0  0  0  0  0
   12.4851   -7.9703    0.0000 C   0  0  1  0  0  0  0  0  0  0  0  0
   12.7214   -6.3395    0.0000 C   0  0  0  0  0  0  0  0  0  0  0  0
   13.5450   -6.3474    0.0000 C   0  0  0  0  0  0  0  0  0  0  0  0
   13.9595   -5.6373    0.0000 C   0  0  0  0  0  0  0  0  0  0  0  0
   13.5530   -4.9228    0.0000 C   0  0  0  0  0  0  0  0  0  0  0  0
   12.7278   -4.9225    0.0000 C   0  0  0  0  0  0  0  0  0  0  0  0
   12.3153   -5.6295    0.0000 C   0  0  0  0  0  0  0  0  0  0  0  0
   11.4908   -5.6288    0.0000 O   0  0  0  0  0  0  0  0  0  0  0  0
   13.9702   -4.2119    0.0000 O   0  0  0  0  0  0  0  0  0  0  0  0
   10.3322   -6.7571    0.0000 C   0  0  0  0  0  0  0  0  0  0  0  0
    9.6224   -7.1779    0.0000 O   0  0  0  0  0  0  0  0  0  0  0  0
   11.7839   -9.2143    0.0000 O   0  0  0  0  0  0  0  0  0  0  0  0
   13.2039   -8.3780    0.0000 O   0  0  0  0  0  0  0  0  0  0  0  0
   12.5003   -9.6222    0.0000 C   0  0  0  0  0  0  0  0  0  0  0  0
    9.6356   -8.8119    0.0000 C   0  0  1  0  0  0  0  0  0  0  0  0
    9.6356   -9.6379    0.0000 C   0  0  1  0  0  0  0  0  0  0  0  0
    8.9230  -10.0452    0.0000 C   0  0  2  0  0  0  0  0  0  0  0  0
    8.2073   -9.6349    0.0000 C   0  0  2  0  0  0  0  0  0  0  0  0
    8.2088   -8.8090    0.0000 C   0  0  2  0  0  0  0  0  0  0  0  0
    8.9261   -8.3931    0.0000 O   0  0  0  0  0  0  0  0  0  0  0  0
    7.4942   -8.3938    0.0000 C   0  0  0  0  0  0  0  0  0  0  0  0
   10.3503  -10.0491    0.0000 O   0  0  0  0  0  0  0  0  0  0  0  0
    8.9225  -10.8702    0.0000 O   0  0  0  0  0  0  0  0  0  0  0  0
    7.4919  -10.0451    0.0000 O   0  0  0  0  0  0  0  0  0  0  0  0
    6.7829   -8.8077    0.0000 O   0  0  0  0  0  0  0  0  0  0  0  0
    6.0683   -8.3924    0.0000 C   0  0  0  0  0  0  0  0  0  0  0  0
    5.3527   -8.8062    0.0000 C   0  0  0  0  0  0  0  0  0  0  0  0
    6.0691   -7.5674    0.0000 O   0  0  0  0  0  0  0  0  0  0  0  0
    5.3521   -9.6313    0.0000 C   0  0  0  0  0  0  0  0  0  0  0  0
    4.6365  -10.0411    0.0000 C   0  0  0  0  0  0  0  0  0  0  0  0
    4.6357  -10.8662    0.0000 C   0  0  0  0  0  0  0  0  0  0  0  0
    5.3501  -11.2817    0.0000 C   0  0  0  0  0  0  0  0  0  0  0  0
    5.3491  -12.1065    0.0000 C   0  0  0  0  0  0  0  0  0  0  0  0
    6.0637  -12.5179    0.0000 C   0  0  0  0  0  0  0  0  0  0  0  0
    6.0687  -13.3424    0.0000 C   0  0  0  0  0  0  0  0  0  0  0  0
    6.7766  -12.1028    0.0000 O   0  0  0  0  0  0  0  0  0  0  0  0
    6.7810  -13.7503    0.0000 C   0  0  0  0  0  0  0  0  0  0  0  0
   13.2113   -9.2036    0.0000 C   0  0  0  0  0  0  0  0  0  0  0  0
   12.5096  -10.4468    0.0000 O   0  0  0  0  0  0  0  0  0  0  0  0
   13.9314   -9.6095    0.0000 C   0  0  0  0  0  0  0  0  0  0  0  0
   14.6424   -9.1909    0.0000 C   0  0  0  0  0  0  0  0  0  0  0  0
   15.3567   -9.5951    0.0000 C   0  0  0  0  0  0  0  0  0  0  0  0
   16.0676   -9.1764    0.0000 C   0  0  0  0  0  0  0  0  0  0  0  0
   16.7877   -9.5823    0.0000 C   0  0  1  0  0  0  0  0  0  0  0  0
   16.7976  -10.4075    0.0000 C   0  0  0  0  0  0  0  0  0  0  0  0
   16.0877  -10.8263    0.0000 C   0  0  0  0  0  0  0  0  0  0  0  0
   16.0974  -11.6512    0.0000 C   0  0  0  0  0  0  0  0  0  0  0  0
   17.4976   -9.1592    0.0000 O   0  0  0  0  0  0  0  0  0  0  0  0
   15.3875  -12.0744    0.0000 C   0  0  0  0  0  0  0  0  0  0  0  0
   15.3971  -12.8994    0.0000 C   0  0  0  0  0  0  0  0  0  0  0  0
   14.6870  -13.3184    0.0000 C   0  0  0  0  0  0  0  0  0  0  0  0
   17.5176  -10.8092    0.0000 C   0  0  0  0  0  0  0  0  0  0  0  0
   14.6970  -14.1434    0.0000 C   0  0  2  0  0  0  0  0  0  0  0  0
   13.9869  -14.5664    0.0000 C   0  0  0  0  0  0  0  0  0  0  0  0
   13.9968  -15.3915    0.0000 C   0  0  0  0  0  0  0  0  0  0  0  0
   15.4169  -14.5494    0.0000 C   0  0  0  0  0  0  0  0  0  0  0  0
   10.3521   -8.4028    0.0000 O   0  0  0  0  0  0  0  0  0  0  0  0
 24 30  1  1  0  0  0
  1  4  1  0  0  0  0
 25 31  1  1  0  0  0
 14 15  1  0  0  0  0
 28 32  1  0  0  0  0
  5  6  1  0  0  0  0
 32 33  1  0  0  0  0
 12 16  1  0  0  0  0
 33 34  1  0  0  0  0
  6  7  1  0  0  0  0
 33 35  2  0  0  0  0
  5 17  1  1  0  0  0
 34 36  2  0  0  0  0
  7  8  1  0  0  0  0
 36 37  1  0  0  0  0
 17 18  1  0  0  0  0
 37 38  2  0  0  0  0
  8  1  1  0  0  0  0
 38 39  1  0  0  0  0
  6 64  1  6  0  0  0
 39 40  2  0  0  0  0
  4  5  1  0  0  0  0
 40 41  1  0  0  0  0
  7 19  1  1  0  0  0
 41 42  1  0  0  0  0
  1  2  1  6  0  0  0
 41 43  1  0  0  0  0
  8 20  1  6  0  0  0
 42 44  1  0  0  0  0
  9 10  2  0  0  0  0
 21 45  1  0  0  0  0
 19 21  1  0  0  0  0
 21 46  2  0  0  0  0
 45 47  2  0  0  0  0
 47 48  1  0  0  0  0
 22 23  1  0  0  0  0
 48 49  2  0  0  0  0
 10 11  1  0  0  0  0
 49 50  1  0  0  0  0
  2  3  1  0  0  0  0
 50 51  1  0  0  0  0
 11 12  2  0  0  0  0
 51 52  1  0  0  0  0
  3 10  1  0  0  0  0
 52 53  2  0  0  0  0
 12 13  1  0  0  0  0
 53 54  1  0  0  0  0
 22 27  1  0  0  0  0
 51 55  1  6  0  0  0
 23 24  1  0  0  0  0
 54 56  2  0  0  0  0
 24 25  1  0  0  0  0
 56 57  1  0  0  0  0
 25 26  1  0  0  0  0
 57 58  1  0  0  0  0
 26 27  1  0  0  0  0
 52 59  1  0  0  0  0
  9  1  1  0  0  0  0
 58 60  1  0  0  0  0
 26 28  1  1  0  0  0
 60 61  1  0  0  0  0
 13 14  2  0  0  0  0
 61 62  1  0  0  0  0
 23 29  1  6  0  0  0
 60 63  1  1  0  0  0
 14  9  1  0  0  0  0
 22 64  1  1  0  0  0
M  END

>  <ACTIVITY>
5.00
$$$$
30167

  Mrv0541 05041708512D          

  1  0  0  0  0  0            999 V2000
    0.0000    0.0000    0.0000 B   0  7  0  0  0  0  0  0  0  0  0  0
M  CHG  1   1  -3
M  END

>  <ACTIVITY>
5.00
$$$$
90410

  Mrv0541 05041708512D          

 24 26  0  0  0  0            999 V2000
    6.0794   -2.6492    0.0000 C   0  0  0  0  0  0  0  0  0  0  0  0
    6.0794   -3.4742    0.0000 C   0  0  0  0  0  0  0  0  0  0  0  0
    6.7961   -3.8847    0.0000 C   0  0  0  0  0  0  0  0  0  0  0  0
    6.7961   -2.2345    0.0000 C   0  0  0  0  0  0  0  0  0  0  0  0
    7.5088   -2.6492    0.0000 C   0  0  0  0  0  0  0  0  0  0  0  0
    7.5053   -3.4742    0.0000 C   0  0  0  0  0  0  0  0  0  0  0  0
    8.2187   -3.8877    0.0000 O   0  0  0  0  0  0  0  0  0  0  0  0
    8.2258   -2.2376    0.0000 C   0  0  0  0  0  0  0  0  0  0  0  0
    8.9391   -2.6553    0.0000 C   0  0  0  0  0  0  0  0  0  0  0  0
    8.9316   -3.4782    0.0000 C   0  0  0  0  0  0  0  0  0  0  0  0
    9.6412   -3.8981    0.0000 C   0  0  0  0  0  0  0  0  0  0  0  0
   10.3582   -3.4910    0.0000 C   0  0  0  0  0  0  0  0  0  0  0  0
   10.3656   -2.6680    0.0000 C   0  0  0  0  0  0  0  0  0  0  0  0
    9.6559   -2.2523    0.0000 C   0  0  0  0  0  0  0  0  0  0  0  0
    5.3663   -3.8806    0.0000 N   0  0  0  0  0  0  0  0  0  0  0  0
    5.3620   -4.7058    0.0000 C   0  0  0  0  0  0  0  0  0  0  0  0
    4.6490   -3.4702    0.0000 C   0  0  0  0  0  0  0  0  0  0  0  0
   11.0631   -3.9055    0.0000 N   0  3  0  0  0  0  0  0  0  0  0  0
   11.0590   -4.7306    0.0000 C   0  0  0  0  0  0  0  0  0  0  0  0
   11.7762   -3.4867    0.0000 C   0  0  0  0  0  0  0  0  0  0  0  0
   11.7714   -5.1468    0.0000 C   0  0  0  0  0  0  0  0  0  0  0  0
   11.7701   -2.6616    0.0000 C   0  0  0  0  0  0  0  0  0  0  0  0
    6.0745   -5.1219    0.0000 C   0  0  0  0  0  0  0  0  0  0  0  0
    3.9360   -3.8854    0.0000 C   0  0  0  0  0  0  0  0  0  0  0  0
  5  4  1  0  0  0  0
  4  1  2  0  0  0  0
  1  2  1  0  0  0  0
  9 10  1  0  0  0  0
 10 11  2  0  0  0  0
 11 12  1  0  0  0  0
 12 13  1  0  0  0  0
 13 14  2  0  0  0  0
 14  9  1  0  0  0  0
  2  3  2  0  0  0  0
  2 15  1  0  0  0  0
  5  6  2  0  0  0  0
 15 16  1  0  0  0  0
  6  7  1  0  0  0  0
 15 17  1  0  0  0  0
  7 10  1  0  0  0  0
 12 18  2  0  0  0  0
  9  8  2  0  0  0  0
 18 19  1  0  0  0  0
  8  5  1  0  0  0  0
 18 20  1  0  0  0  0
  3  6  1  0  0  0  0
 19 21  1  0  0  0  0
 20 22  1  0  0  0  0
 16 23  1  0  0  0  0
 17 24  1  0  0  0  0
M  CHG  1  18   1
M  END

>  <ACTIVITY>
5.00
$$$$
86511

  Mrv0541 05041708512D          

 15 17  0  0  0  0            999 V2000
   10.5350   -5.1836    0.0000 C   0  0  0  0  0  0  0  0  0  0  0  0
   10.5350   -6.0086    0.0000 C   0  0  0  0  0  0  0  0  0  0  0  0
    9.8204   -4.7711    0.0000 C   0  0  0  0  0  0  0  0  0  0  0  0
    9.8204   -6.4211    0.0000 C   0  0  0  0  0  0  0  0  0  0  0  0
    9.1060   -5.1836    0.0000 C   0  0  0  0  0  0  0  0  0  0  0  0
    9.1060   -6.0086    0.0000 C   0  0  0  0  0  0  0  0  0  0  0  0
    8.3915   -4.7711    0.0000 C   0  0  0  0  0  0  0  0  0  0  0  0
    7.6770   -5.1836    0.0000 C   0  0  0  0  0  0  0  0  0  0  0  0
    8.3916   -6.4211    0.0000 O   0  0  0  0  0  0  0  0  0  0  0  0
    7.6771   -6.0086    0.0000 C   0  0  0  0  0  0  0  0  0  0  0  0
    6.9627   -6.4211    0.0000 O   0  0  0  0  0  0  0  0  0  0  0  0
    8.3915   -3.9461    0.0000 C   0  0  0  0  0  0  0  0  0  0  0  0
    7.6770   -3.5336    0.0000 C   0  0  0  0  0  0  0  0  0  0  0  0
    6.9625   -3.9461    0.0000 C   0  0  0  0  0  0  0  0  0  0  0  0
    6.9625   -4.7711    0.0000 C   0  0  0  0  0  0  0  0  0  0  0  0
  2  1  1  0  0  0  0
  3  1  2  0  0  0  0
  4  2  2  0  0  0  0
  5  3  1  0  0  0  0
  6  4  1  0  0  0  0
  6  5  2  0  0  0  0
  7  5  1  0  0  0  0
  9  6  1  0  0  0  0
 10  8  1  0  0  0  0
 10  9  1  0  0  0  0
 10 11  2  0  0  0  0
  7 12  1  0  0  0  0
 13 12  2  0  0  0  0
  8  7  2  0  0  0  0
 14 13  1  0  0  0  0
 15  8  1  0  0  0  0
 15 14  2  0  0  0  0
M  END

>  <ACTIVITY>
5.00
$$$$
60344

  Mrv0541 05041708512D          

 43 50  0  0  0  0            999 V2000
   -1.6487    0.7096    0.0000 C   0  0  0  0  0  0  0  0  0  0  0  0
   -0.7096    1.6696    0.0000 C   0  0  0  0  0  0  0  0  0  0  0  0
    0.0000    2.0870    0.0000 C   0  0  0  0  0  0  0  0  0  0  0  0
    0.7305    1.6696    0.0000 C   0  0  0  0  0  0  0  0  0  0  0  0
    1.6696    0.7096    0.0000 C   0  0  0  0  0  0  0  0  0  0  0  0
    2.0871    0.0000    0.0000 C   0  0  0  0  0  0  0  0  0  0  0  0
    1.6696   -0.7096    0.0000 C   0  0  0  0  0  0  0  0  0  0  0  0
    0.7305   -1.6697    0.0000 C   0  0  0  0  0  0  0  0  0  0  0  0
    0.0000   -2.0871    0.0000 C   0  0  0  0  0  0  0  0  0  0  0  0
   -0.7096   -1.6697    0.0000 C   0  0  0  0  0  0  0  0  0  0  0  0
   -1.6487   -0.7096    0.0000 C   0  0  0  0  0  0  0  0  0  0  0  0
   -2.0661    0.0000    0.0000 C   0  0  0  0  0  0  0  0  0  0  0  0
    0.8557    0.8557    0.0000 N   0  3  0  0  0  0  0  0  0  0  0  0
    0.8557   -0.8557    0.0000 N   0  0  0  0  0  0  0  0  0  0  0  0
   -0.8348   -0.8557    0.0000 N   0  3  0  0  0  0  0  0  0  0  0  0
   -2.0244    1.4609    0.0000 C   0  0  0  0  0  0  0  0  0  0  0  0
   -2.8213    1.6744    0.0000 C   0  0  0  0  0  0  0  0  0  0  0  0
    1.4610    2.0453    0.0000 C   0  0  0  0  0  0  0  0  0  0  0  0
    1.6745    2.8422    0.0000 C   0  0  0  0  0  0  0  0  0  0  0  0
    2.0662   -1.4609    0.0000 C   0  0  0  0  0  0  0  0  0  0  0  0
    2.8630   -1.6744    0.0000 C   0  0  0  0  0  0  0  0  0  0  0  0
   -2.0244   -1.4609    0.0000 C   0  0  0  0  0  0  0  0  0  0  0  0
   -2.8213   -1.6744    0.0000 C   0  0  0  0  0  0  0  0  0  0  0  0
   -1.4400    2.0453    0.0000 C   0  0  0  0  0  0  0  0  0  0  0  0
   -1.6535    2.8422    0.0000 C   0  0  0  0  0  0  0  0  0  0  0  0
   -2.4504    3.0557    0.0000 C   0  0  0  0  0  0  0  0  0  0  0  0
    2.0662    1.4609    0.0000 C   0  0  0  0  0  0  0  0  0  0  0  0
    2.8630    1.6744    0.0000 C   0  0  0  0  0  0  0  0  0  0  0  0
    3.0765    2.4713    0.0000 C   0  0  0  0  0  0  0  0  0  0  0  0
   -1.4400   -2.0453    0.0000 C   0  0  0  0  0  0  0  0  0  0  0  0
   -1.6535   -2.8422    0.0000 C   0  0  0  0  0  0  0  0  0  0  0  0
   -2.4504   -3.0557    0.0000 C   0  0  0  0  0  0  0  0  0  0  0  0
    1.4610   -2.0453    0.0000 C   0  0  0  0  0  0  0  0  0  0  0  0
    1.6745   -2.8422    0.0000 C   0  0  0  0  0  0  0  0  0  0  0  0
    2.4714   -3.0557    0.0000 C   0  0  0  0  0  0  0  0  0  0  0  0
   -3.4608   -4.0661    0.0000 O   0  5  0  0  0  0  0  0  0  0  0  0
   -2.6639   -3.8526    0.0000 C   0  0  0  0  0  0  0  0  0  0  0  0
   -2.0806   -4.4360    0.0000 O   0  0  0  0  0  0  0  0  0  0  0  0
    2.1016   -4.4360    0.0000 O   0  5  0  0  0  0  0  0  0  0  0  0
    2.6848   -3.8526    0.0000 C   0  0  0  0  0  0  0  0  0  0  0  0
    3.4817   -4.0661    0.0000 O   0  0  0  0  0  0  0  0  0  0  0  0
   -0.8348    0.8557    0.0000 N   0  0  0  0  0  0  0  0  0  0  0  0
    0.0000    0.0000    0.0000 Fe  0  6  0  0  0  0  0  0  0  0  0  0
  1 42  1  0  0  0  0
 16  1  2  0  0  0  0
  1 12  1  0  0  0  0
  2  3  1  0  0  0  0
 42  2  1  0  0  0  0
 24  2  2  0  0  0  0
  3  4  2  0  0  0  0
  4 13  1  0  0  0  0
 18  4  1  0  0  0  0
  5  6  1  0  0  0  0
 13  5  2  0  0  0  0
 27  5  1  0  0  0  0
  6  7  2  0  0  0  0
  7 14  1  0  0  0  0
  7 20  1  0  0  0  0
  8  9  2  0  0  0  0
 33  8  1  0  0  0  0
 14  8  1  0  0  0  0
 10  9  1  0  0  0  0
 15 10  2  0  0  0  0
 30 10  1  0  0  0  0
 11 12  2  0  0  0  0
 15 11  1  0  0  0  0
 22 11  1  0  0  0  0
 13 43  1  0  0  0  0
 43 14  1  0  0  0  0
 15 43  1  0  0  0  0
 24 16  1  0  0  0  0
 16 17  1  0  0  0  0
 18 27  2  0  0  0  0
 18 19  1  0  0  0  0
 20 33  2  0  0  0  0
 20 21  1  0  0  0  0
 22 30  2  0  0  0  0
 22 23  1  0  0  0  0
 24 25  1  0  0  0  0
 25 26  2  0  0  0  0
 27 28  1  0  0  0  0
 28 29  2  0  0  0  0
 30 31  1  0  0  0  0
 31 32  1  0  0  0  0
 32 37  1  0  0  0  0
 33 34  1  0  0  0  0
 34 35  1  0  0  0  0
 35 40  1  0  0  0  0
 37 36  1  0  0  0  0
 37 38  2  0  0  0  0
 40 39  1  0  0  0  0
 40 41  2  0  0  0  0
 42 43  1  0  0  0  0
M  CHG  5  13   1  15   1  36  -1  39  -1  43  -2
M  END

>  <ACTIVITY>
5.00
$$$$
61721

  Mrv0541 05041708512D          

 66 74  0  0  0  0            999 V2000
   -1.6487    0.7096    0.0000 C   0  0  0  0  0  0  0  0  0  0  0  0
   -0.7096    1.6696    0.0000 C   0  0  0  0  0  0  0  0  0  0  0  0
    0.0000    2.0870    0.0000 C   0  0  0  0  0  0  0  0  0  0  0  0
    0.7305    1.6696    0.0000 C   0  0  0  0  0  0  0  0  0  0  0  0
    1.6696    0.7096    0.0000 C   0  0  0  0  0  0  0  0  0  0  0  0
    2.0871    0.0000    0.0000 C   0  0  0  0  0  0  0  0  0  0  0  0
    1.6696   -0.7096    0.0000 C   0  0  0  0  0  0  0  0  0  0  0  0
    0.7305   -1.6697    0.0000 C   0  0  0  0  0  0  0  0  0  0  0  0
   -0.7096   -1.6697    0.0000 C   0  0  0  0  0  0  0  0  0  0  0  0
   -1.6487   -0.7096    0.0000 C   0  0  0  0  0  0  0  0  0  0  0  0
   -2.0661    0.0000    0.0000 C   0  0  0  0  0  0  0  0  0  0  0  0
    0.8557    0.8557    0.0000 N   0  3  0  0  0  0  0  0  0  0  0  0
    0.8557   -0.8557    0.0000 N   0  0  0  0  0  0  0  0  0  0  0  0
   -0.8348   -0.8557    0.0000 N   0  3  0  0  0  0  0  0  0  0  0  0
   -2.0244    1.4609    0.0000 C   0  0  0  0  0  0  0  0  0  0  0  0
   -2.8213    1.6744    0.0000 C   0  0  0  0  0  0  0  0  0  0  0  0
    1.4610    2.0453    0.0000 C   0  0  0  0  0  0  0  0  0  0  0  0
    2.0662   -1.4609    0.0000 C   0  0  0  0  0  0  0  0  0  0  0  0
    2.8630   -1.6744    0.0000 C   0  0  0  0  0  0  0  0  0  0  0  0
   -1.4400    2.0453    0.0000 C   0  0  0  0  0  0  0  0  0  0  0  0
   -1.6535    2.8422    0.0000 C   0  0  0  0  0  0  0  0  0  0  0  0
   -2.4504    3.0557    0.0000 C   0  0  0  0  0  0  0  0  0  0  0  0
    2.0662    1.4609    0.0000 C   0  0  0  0  0  0  0  0  0  0  0  0
   -0.8348    0.8557    0.0000 N   0  0  0  0  0  0  0  0  0  0  0  0
    0.0000    0.0000    0.0000 Mg  0  6  0  0  0  0  0  0  0  0  0  0
    2.8630    1.6744    0.0000 C   0  0  0  0  0  0  0  0  0  0  0  0
    3.4464    1.0910    0.0000 C   0  0  0  0  0  0  0  0  0  0  0  0
    1.6745    2.8422    0.0000 C   0  0  0  0  0  0  0  0  0  0  0  0
    1.0911    3.4256    0.0000 O   0  0  0  0  0  0  0  0  0  0  0  0
    0.0000   -2.0871    0.0000 C   0  0  0  0  0  0  0  0  0  0  0  0
    1.4610   -2.0453    0.0000 C   0  0  0  0  0  0  0  0  0  0  0  0
    1.2475   -2.8840    0.0000 C   0  0  0  0  0  0  0  0  0  0  0  0
    1.6600   -3.5985    0.0000 O   0  0  0  0  0  0  0  0  0  0  0  0
    0.2135   -2.8840    0.0000 C   0  5  0  0  0  0  0  0  0  0  0  0
   -1.0240   -3.5985    0.0000 O   0  0  0  0  0  0  0  0  0  0  0  0
   -0.1990   -3.5985    0.0000 C   0  0  0  0  0  0  0  0  0  0  0  0
    0.2135   -4.3129    0.0000 O   0  0  0  0  0  0  0  0  0  0  0  0
    1.0385   -4.3129    0.0000 C   0  0  0  0  0  0  0  0  0  0  0  0
   -1.4400   -2.0453    0.0000 C   0  0  1  0  0  0  0  0  0  0  0  0
   -1.4400   -2.8703    0.0000 C   0  0  0  0  0  0  0  0  0  0  0  0
   -2.1545   -3.2828    0.0000 C   0  0  0  0  0  0  0  0  0  0  0  0
   -2.1545   -4.1078    0.0000 C   0  0  0  0  0  0  0  0  0  0  0  0
   -1.4400   -4.5203    0.0000 O   0  0  0  0  0  0  0  0  0  0  0  0
   -2.8690   -4.5203    0.0000 O   0  0  0  0  0  0  0  0  0  0  0  0
   -3.5834   -4.1078    0.0000 C   0  0  0  0  0  0  0  0  0  0  0  0
   -4.2979   -4.5202    0.0000 C   0  0  0  0  0  0  0  0  0  0  0  0
   -5.0124   -4.1077    0.0000 C   0  0  0  0  0  0  0  0  0  0  0  0
   -5.7269   -4.5202    0.0000 C   0  0  0  0  0  0  0  0  0  0  0  0
   -5.0123   -3.2827    0.0000 C   0  0  0  0  0  0  0  0  0  0  0  0
   -6.4414   -4.1076    0.0000 C   0  0  0  0  0  0  0  0  0  0  0  0
   -7.1556   -4.5201    0.0000 C   0  0  0  0  0  0  0  0  0  0  0  0
   -7.8701   -4.1075    0.0000 C   0  0  1  0  0  0  0  0  0  0  0  0
   -8.5846   -4.5200    0.0000 C   0  0  0  0  0  0  0  0  0  0  0  0
   -7.8701   -3.2824    0.0000 C   0  0  0  0  0  0  0  0  0  0  0  0
   -9.2990   -4.1075    0.0000 C   0  0  0  0  0  0  0  0  0  0  0  0
  -10.0135   -4.5199    0.0000 C   0  0  0  0  0  0  0  0  0  0  0  0
  -10.7279   -4.1074    0.0000 C   0  0  1  0  0  0  0  0  0  0  0  0
  -11.4424   -4.5198    0.0000 C   0  0  0  0  0  0  0  0  0  0  0  0
  -10.7279   -3.2823    0.0000 C   0  0  0  0  0  0  0  0  0  0  0  0
  -12.1568   -4.1073    0.0000 C   0  0  0  0  0  0  0  0  0  0  0  0
  -12.8714   -4.5198    0.0000 C   0  0  0  0  0  0  0  0  0  0  0  0
  -13.5857   -4.1072    0.0000 C   0  0  0  0  0  0  0  0  0  0  0  0
  -13.5856   -3.2822    0.0000 C   0  0  0  0  0  0  0  0  0  0  0  0
  -14.3002   -4.5197    0.0000 C   0  0  0  0  0  0  0  0  0  0  0  0
   -2.0244   -1.4609    0.0000 C   0  0  2  0  0  0  0  0  0  0  0  0
   -2.8213   -1.6744    0.0000 C   0  0  0  0  0  0  0  0  0  0  0  0
  1 24  1  0  0  0  0
 15  1  1  0  0  0  0
  1 11  2  0  0  0  0
  2  3  2  0  0  0  0
 24  2  1  0  0  0  0
 20  2  1  0  0  0  0
  3  4  1  0  0  0  0
  4 12  2  0  0  0  0
 17  4  1  0  0  0  0
  5  6  2  0  0  0  0
 12  5  1  0  0  0  0
 23  5  1  0  0  0  0
  6  7  1  0  0  0  0
  7 13  1  0  0  0  0
  7 18  2  0  0  0  0
  8 30  1  0  0  0  0
 31  8  2  0  0  0  0
 13  8  1  0  0  0  0
  9 30  2  0  0  0  0
 14  9  1  0  0  0  0
 39  9  1  0  0  0  0
 10 11  1  0  0  0  0
 14 10  2  0  0  0  0
 65 10  1  0  0  0  0
 25 13  1  0  0  0  0
 20 15  2  0  0  0  0
 15 16  1  0  0  0  0
 17 23  2  0  0  0  0
 17 28  1  0  0  0  0
 18 31  1  0  0  0  0
 18 19  1  0  0  0  0
 65 39  1  0  0  0  0
 20 21  1  0  0  0  0
 21 22  2  0  0  0  0
 23 26  1  0  0  0  0
 24 25  1  0  0  0  0
 26 27  1  0  0  0  0
 28 29  2  0  0  0  0
 30 34  1  0  0  0  0
 31 32  1  0  0  0  0
 34 32  1  0  0  0  0
 32 33  2  0  0  0  0
 34 36  1  0  0  0  0
 36 35  2  0  0  0  0
 36 37  1  0  0  0  0
 37 38  1  0  0  0  0
 41 40  1  0  0  0  0
 39 40  1  1  0  0  0
 41 42  1  0  0  0  0
 42 44  1  0  0  0  0
 42 43  2  0  0  0  0
 45 44  1  0  0  0  0
 46 45  1  0  0  0  0
 47 46  2  0  0  0  0
 48 47  1  0  0  0  0
 49 47  1  0  0  0  0
 50 48  1  0  0  0  0
 51 50  1  0  0  0  0
 52 51  1  0  0  0  0
 53 52  1  0  0  0  0
 52 54  1  1  0  0  0
 55 53  1  0  0  0  0
 56 55  1  0  0  0  0
 57 56  1  0  0  0  0
 58 57  1  0  0  0  0
 57 59  1  1  0  0  0
 60 58  1  0  0  0  0
 61 60  1  0  0  0  0
 62 61  1  0  0  0  0
 63 62  1  0  0  0  0
 64 62  1  0  0  0  0
 65 66  1  6  0  0  0
 12 25  1  0  0  0  0
 14 25  1  0  0  0  0
M  CHG  4  12   1  14   1  25  -2  34  -1
M  END

>  <ACTIVITY>
5.00
$$$$
68593

  Mrv0541 05041708512D          

 38 42  0  0  0  0            999 V2000
   -6.2628    1.9154    0.0000 O   0  0  0  0  0  0  0  0  0  0  0  0
   -5.8459    1.1986    0.0000 S   0  0  0  0  0  0  0  0  0  0  0  0
   -5.4335    1.9180    0.0000 O   0  0  0  0  0  0  0  0  0  0  0  0
   -4.4164    2.0239    0.0000 C   0  0  0  0  0  0  0  0  0  0  0  0
   -4.4164    1.1986    0.0000 C   0  0  1  0  0  0  0  0  0  0  0  0
   -3.7041    0.7902    0.0000 C   0  0  0  0  0  0  0  0  0  0  0  0
   -3.7041    2.4406    0.0000 C   0  0  0  0  0  0  0  0  0  0  0  0
   -2.9921    2.0239    0.0000 C   0  0  1  0  0  0  0  0  0  0  0  0
   -2.9910    1.1986    0.0000 C   0  0  1  0  0  0  0  0  0  0  0  0
   -2.2797    0.7893    0.0000 C   0  0  1  0  0  0  0  0  0  0  0  0
   -1.5649    1.2004    0.0000 C   0  0  0  0  0  0  0  0  0  0  0  0
   -2.2818    2.4397    0.0000 C   0  0  2  0  0  0  0  0  0  0  0  0
   -1.5680    2.0273    0.0000 C   0  0  2  0  0  0  0  0  0  0  0  0
   -1.5692    3.6731    0.0000 C   0  0  0  0  0  0  0  0  0  0  0  0
   -2.2855    3.2616    0.0000 C   0  0  0  0  0  0  0  0  0  0  0  0
   -0.8555    3.2607    0.0000 C   0  0  1  0  0  0  0  0  0  0  0  0
   -0.8540    2.4361    0.0000 C   0  0  1  0  0  0  0  0  0  0  0  0
   -0.0694    2.1826    0.0000 C   0  0  0  0  0  0  0  0  0  0  0  0
    0.4144    2.8507    0.0000 C   0  0  0  0  0  0  0  0  0  0  0  0
   -0.0718    3.5169    0.0000 C   0  0  2  0  0  0  0  0  0  0  0  0
   -0.0778    4.3452    0.0000 C   0  0  1  0  0  0  0  0  0  0  0  0
    0.6339    4.7631    0.0000 C   0  0  0  0  0  0  0  0  0  0  0  0
   -0.7954    4.7528    0.0000 C   0  0  0  0  0  0  0  0  0  0  0  0
    1.3515    4.3558    0.0000 C   0  0  0  0  0  0  0  0  0  0  0  0
    2.0630    4.7736    0.0000 C   0  0  0  0  0  0  0  0  0  0  0  0
    2.7808    4.3661    0.0000 C   0  0  0  0  0  0  0  0  0  0  0  0
    3.4923    4.7842    0.0000 C   0  0  0  0  0  0  0  0  0  0  0  0
    2.7868    3.5411    0.0000 C   0  0  0  0  0  0  0  0  0  0  0  0
   -0.8613    4.0869    0.0000 C   0  0  0  0  0  0  0  0  0  0  0  0
   -5.1305    0.7850    0.0000 O   0  0  0  0  0  0  0  0  0  0  0  0
   -2.2798   -0.0359    0.0000 O   0  0  0  0  0  0  0  0  0  0  0  0
   -2.9953    0.3776    0.0000 O   0  0  0  0  0  0  0  0  0  0  0  0
   -2.8702    3.0282    0.0000 H   0  0  0  0  0  0  0  0  0  0  0  0
   -0.8613    1.6114    0.0000 H   0  0  0  0  0  0  0  0  0  0  0  0
   -2.0117    1.3695    0.0000 O   0  0  0  0  0  0  0  0  0  0  0  0
   -2.6950    1.3987    0.0000 C   0  0  0  0  0  0  0  0  0  0  0  0
   -6.5597    0.7830    0.0000 O   0  5  0  0  0  0  0  0  0  0  0  0
    0.7225    3.7369    0.0000 H   0  0  0  0  0  0  0  0  0  0  0  0
  2  1  2  0  0  0  0
 30  2  1  0  0  0  0
  2 37  1  0  0  0  0
  3  2  2  0  0  0  0
  4  7  1  0  0  0  0
  4  5  1  0  0  0  0
  5  6  1  0  0  0  0
  5 30  1  1  0  0  0
  6  9  1  0  0  0  0
  8  7  1  0  0  0  0
  8 12  1  0  0  0  0
  8 36  1  1  0  0  0
  8  9  1  0  0  0  0
  9 10  1  0  0  0  0
  9 32  1  6  0  0  0
 10 11  1  0  0  0  0
 10 31  1  1  0  0  0
 11 13  1  0  0  0  0
 12 13  1  0  0  0  0
 12 15  1  0  0  0  0
 12 33  1  6  0  0  0
 13 17  1  0  0  0  0
 13 35  1  1  0  0  0
 16 14  1  0  0  0  0
 14 15  1  0  0  0  0
 20 16  1  0  0  0  0
 16 29  1  1  0  0  0
 16 17  1  0  0  0  0
 17 18  1  0  0  0  0
 17 34  1  6  0  0  0
 18 19  1  0  0  0  0
 19 20  1  0  0  0  0
 20 21  1  0  0  0  0
 20 38  1  6  0  0  0
 21 22  1  0  0  0  0
 21 23  1  6  0  0  0
 22 24  2  0  0  0  0
 24 25  1  0  0  0  0
 25 26  1  0  0  0  0
 26 27  1  0  0  0  0
 26 28  1  0  0  0  0
 35 36  1  0  0  0  0
M  CHG  1  37  -1
M  END

>  <ACTIVITY>
5.00
$$$$
52451

  Mrv0541 05041708512D          

  1  0  0  0  0  0            999 V2000
   26.6641   -9.6305    0.0000 B   0  0  0  0  0 15  0  0  0  0  0  0
M  ISO  1   1  11
M  END

>  <ACTIVITY>
5.00
$$$$
18142
ChEBI
  Mrv0541 05041708512D          

 36 38  0  0  1  0            999 V2000
   15.2041  -13.6449    0.0000 C   0  0  2  0  0  0  0  0  0  0  0  0
   15.2041  -12.8200    0.0000 C   0  0  2  0  0  0  0  0  0  0  0  0
   14.4892  -12.4075    0.0000 C   0  0  1  0  0  0  0  0  0  0  0  0
   13.8017  -12.8200    0.0000 C   0  0  2  0  0  0  0  0  0  0  0  0
   13.8017  -13.6449    0.0000 C   0  0  2  0  0  0  0  0  0  0  0  0
   14.4892  -14.0574    0.0000 O   0  0  0  0  0  0  0  0  0  0  0  0
   13.0867  -14.0574    0.0000 O   0  0  0  0  0  0  0  0  0  0  0  0
   13.0867  -14.8823    0.0000 C   0  0  1  0  0  0  0  0  0  0  0  0
   12.3718  -15.2949    0.0000 C   0  0  1  0  0  0  0  0  0  0  0  0
   12.3718  -16.1198    0.0000 C   0  0  2  0  0  0  0  0  0  0  0  0
   13.0592  -16.5323    0.0000 C   0  0  1  0  0  0  0  0  0  0  0  0
   13.7742  -16.1198    0.0000 C   0  0  0  0  0  0  0  0  0  0  0  0
   13.7742  -15.2949    0.0000 C   0  0  2  0  0  0  0  0  0  0  0  0
   11.6568  -16.5323    0.0000 O   0  0  0  0  0  0  0  0  0  0  0  0
   15.9191  -14.0574    0.0000 C   0  0  0  0  0  0  0  0  0  0  0  0
   13.0867  -12.4075    0.0000 N   0  0  0  0  0  0  0  0  0  0  0  0
   14.4892  -14.8823    0.0000 N   0  0  0  0  0  0  0  0  0  0  0  0
   13.0592  -17.3573    0.0000 N   0  0  0  0  0  0  0  0  0  0  0  0
   11.6568  -14.8823    0.0000 O   0  0  0  0  0  0  0  0  0  0  0  0
   10.9143  -16.9448    0.0000 C   0  0  1  0  0  0  0  0  0  0  0  0
   10.2268  -16.5323    0.0000 O   0  0  0  0  0  0  0  0  0  0  0  0
    9.4844  -16.9448    0.0000 C   0  0  1  0  0  0  0  0  0  0  0  0
    9.4844  -17.7698    0.0000 C   0  0  2  0  0  0  0  0  0  0  0  0
   10.1994  -18.1822    0.0000 C   0  0  1  0  0  0  0  0  0  0  0  0
   10.9143  -17.7698    0.0000 C   0  0  1  0  0  0  0  0  0  0  0  0
   15.9191  -12.4075    0.0000 O   0  0  0  0  0  0  0  0  0  0  0  0
   14.4892  -11.5825    0.0000 O   0  0  0  0  0  0  0  0  0  0  0  0
    8.7969  -16.5048    0.0000 C   0  0  0  0  0  0  0  0  0  0  0  0
    8.0545  -16.9173    0.0000 O   0  0  0  0  0  0  0  0  0  0  0  0
    8.7694  -18.1547    0.0000 O   0  0  0  0  0  0  0  0  0  0  0  0
   10.1994  -19.0072    0.0000 N   0  0  0  0  0  0  0  0  0  0  0  0
   11.6293  -18.1822    0.0000 O   0  0  0  0  0  0  0  0  0  0  0  0
   15.9191  -14.8823    0.0000 N   0  0  0  0  0  0  0  0  0  0  0  0
   16.6336  -16.1198    0.0000 O   0  0  0  0  0  0  0  0  0  0  0  0
   16.6336  -15.2948    0.0000 C   0  0  0  0  0  0  0  0  0  0  0  0
   17.3480  -14.8823    0.0000 C   0  0  0  0  0  0  0  0  0  0  0  0
 25 20  1  0  0  0  0
 11 12  1  0  0  0  0
 12 13  1  0  0  0  0
 13  8  1  0  0  0  0
  6  1  1  0  0  0  0
 10 14  1  6  0  0  0
  1 15  1  1  0  0  0
  5  7  1  6  0  0  0
  4 16  1  6  0  0  0
 13 17  1  1  0  0  0
  8  7  1  6  0  0  0
  2 26  1  6  0  0  0
 11 18  1  1  0  0  0
  3 27  1  1  0  0  0
  1  2  1  0  0  0  0
  9 19  1  1  0  0  0
  2  3  1  0  0  0  0
 15 33  1  0  0  0  0
  3  4  1  0  0  0  0
 22 28  1  1  0  0  0
 28 29  1  0  0  0  0
 20 14  1  6  0  0  0
 23 30  1  6  0  0  0
  4  5  1  0  0  0  0
 24 31  1  1  0  0  0
  5  6  1  0  0  0  0
 25 32  1  6  0  0  0
  8  9  1  0  0  0  0
  9 10  1  0  0  0  0
 10 11  1  0  0  0  0
 20 21  1  0  0  0  0
 21 22  1  0  0  0  0
 22 23  1  0  0  0  0
 23 24  1  0  0  0  0
 24 25  1  0  0  0  0
 33 35  1  0  0  0  0
 35 34  2  0  0  0  0
 35 36  1  0  0  0  0
M  END

>  <ACTIVITY>
5.00
$$$$
58549

  Mrv0541 05041708512D          

 33 35  0  0  0  0            999 V2000
    0.7145   -0.4125    0.0000 C   0  0  2  0  0  0  0  0  0  0  0  0
    0.0000    0.8250    0.0000 C   0  0  1  0  0  0  0  0  0  0  0  0
    0.0000   -0.8250    0.0000 C   0  0  1  0  0  0  0  0  0  0  0  0
   -0.7145   -0.4125    0.0000 C   0  0  2  0  0  0  0  0  0  0  0  0
   -0.7145    0.4125    0.0000 C   0  0  2  0  0  0  0  0  0  0  0  0
   -0.7144   -2.0625    0.0000 C   0  0  2  0  0  0  0  0  0  0  0  0
   -0.7144   -2.8875    0.0000 C   0  0  1  0  0  0  0  0  0  0  0  0
   -1.4289   -3.3000    0.0000 C   0  0  2  0  0  0  0  0  0  0  0  0
   -2.1434   -2.8875    0.0000 C   0  0  1  0  0  0  0  0  0  0  0  0
   -2.1434   -2.0625    0.0000 C   0  0  2  0  0  0  0  0  0  0  0  0
   -1.4289   -1.6500    0.0000 O   0  0  0  0  0  0  0  0  0  0  0  0
   -2.8578   -3.3000    0.0000 O   0  0  0  0  0  0  0  0  0  0  0  0
   -2.8578   -1.6500    0.0000 C   0  0  0  0  0  0  0  0  0  0  0  0
   -1.4289   -4.1250    0.0000 N   0  3  0  0  0  0  0  0  0  0  0  0
   -3.5723   -2.0625    0.0000 O   0  0  0  0  0  0  0  0  0  0  0  0
    0.0001    1.6500    0.0000 N   0  3  0  0  0  0  0  0  0  0  0  0
    1.4290   -0.8250    0.0000 N   0  3  0  0  0  0  0  0  0  0  0  0
   -1.4289   -0.8250    0.0000 O   0  0  0  0  0  0  0  0  0  0  0  0
    0.0001   -1.6500    0.0000 O   0  0  0  0  0  0  0  0  0  0  0  0
   -1.4289    0.8250    0.0000 O   0  0  0  0  0  0  0  0  0  0  0  0
   -1.4289    1.6500    0.0000 C   0  0  1  0  0  0  0  0  0  0  0  0
   -0.7144    2.0625    0.0000 O   0  0  0  0  0  0  0  0  0  0  0  0
   -0.7144    2.8875    0.0000 C   0  0  1  0  0  0  0  0  0  0  0  0
   -1.4289    3.3000    0.0000 C   0  0  2  0  0  0  0  0  0  0  0  0
   -2.1434    2.8875    0.0000 C   0  0  1  0  0  0  0  0  0  0  0  0
   -2.1434    2.0625    0.0000 C   0  0  1  0  0  0  0  0  0  0  0  0
    0.0001    3.3000    0.0000 C   0  0  0  0  0  0  0  0  0  0  0  0
    0.7145    2.8875    0.0000 N   0  3  0  0  0  0  0  0  0  0  0  0
   -2.8578    3.3000    0.0000 O   0  0  0  0  0  0  0  0  0  0  0  0
   -1.4289    4.1250    0.0000 O   0  0  0  0  0  0  0  0  0  0  0  0
    0.7145    0.4125    0.0000 C   0  0  0  0  0  0  0  0  0  0  0  0
    0.0001   -3.3000    0.0000 O   0  0  0  0  0  0  0  0  0  0  0  0
   -2.8579    1.6500    0.0000 N   0  3  0  0  0  0  0  0  0  0  0  0
 31  1  1  0  0  0  0
  1 17  1  1  0  0  0
  2 31  1  0  0  0  0
  2 16  1  1  0  0  0
  1  3  1  0  0  0  0
  3 19  1  6  0  0  0
  3  4  1  0  0  0  0
  4 18  1  1  0  0  0
  4  5  1  0  0  0  0
  5  2  1  0  0  0  0
  5 20  1  6  0  0  0
  6 19  1  6  0  0  0
  6  7  1  0  0  0  0
 11  6  1  0  0  0  0
  7  8  1  0  0  0  0
  7 32  1  6  0  0  0
  8  9  1  0  0  0  0
  8 14  1  1  0  0  0
  9 10  1  0  0  0  0
  9 12  1  6  0  0  0
 10 11  1  0  0  0  0
 10 13  1  1  0  0  0
 13 15  1  0  0  0  0
 21 20  1  6  0  0  0
 21 22  1  0  0  0  0
 26 21  1  0  0  0  0
 22 23  1  0  0  0  0
 23 24  1  0  0  0  0
 23 27  1  1  0  0  0
 24 25  1  0  0  0  0
 24 30  1  6  0  0  0
 25 26  1  0  0  0  0
 25 29  1  1  0  0  0
 26 33  1  6  0  0  0
 27 28  1  0  0  0  0
M  CHG  5  14   1  16   1  17   1  28   1  33   1
M  END

>  <ACTIVITY>
5.00
$$$$
73483

  Mrv0541 05041708512D          

 29 31  0  0  0  0            999 V2000
   -5.0973    0.1473    0.0000 C   0  0  0  0  0  0  0  0  0  0  0  0
   -5.8118   -0.2652    0.0000 C   0  0  0  0  0  0  0  0  0  0  0  0
   -5.8118   -1.0902    0.0000 C   0  0  0  0  0  0  0  0  0  0  0  0
   -5.0973   -1.5027    0.0000 C   0  0  0  0  0  0  0  0  0  0  0  0
   -4.3829   -1.0902    0.0000 C   0  0  0  0  0  0  0  0  0  0  0  0
   -4.3829   -0.2652    0.0000 C   0  0  0  0  0  0  0  0  0  0  0  0
   -3.6684    0.1473    0.0000 N   0  0  0  0  0  0  0  0  0  0  0  0
   -3.6684   -1.5027    0.0000 O   0  0  0  0  0  0  0  0  0  0  0  0
   -2.9539   -1.0902    0.0000 C   0  0  0  0  0  0  0  0  0  0  0  0
   -2.9539   -0.2652    0.0000 C   0  0  0  0  0  0  0  0  0  0  0  0
   -2.2395    0.1473    0.0000 C   0  0  0  0  0  0  0  0  0  0  0  0
   -2.2395   -1.5027    0.0000 C   0  0  0  0  0  0  0  0  0  0  0  0
   -1.5250   -1.0902    0.0000 C   0  0  0  0  0  0  0  0  0  0  0  0
   -1.5250   -0.2652    0.0000 C   0  0  0  0  0  0  0  0  0  0  0  0
   -6.5263    0.1473    0.0000 C   0  0  0  0  0  0  0  0  0  0  0  0
   -6.5263    0.9723    0.0000 O   0  0  0  0  0  0  0  0  0  0  0  0
   -7.2407   -0.2652    0.0000 O   0  5  0  0  0  0  0  0  0  0  0  0
   -0.8105   -1.5027    0.0000 O   0  0  0  0  0  0  0  0  0  0  0  0
   -0.8105    0.1473    0.0000 N   0  0  0  0  0  0  0  0  0  0  0  0
   -2.2395    0.9723    0.0000 S   0  0  0  0  0  0  0  0  0  0  0  0
   -2.9539    1.3848    0.0000 C   0  0  0  0  0  0  0  0  0  0  0  0
   -2.9539    2.2098    0.0000 C   0  0  1  0  0  0  0  0  0  0  0  0
   -2.2395    2.6223    0.0000 C   0  0  0  0  0  0  0  0  0  0  0  0
   -3.6684    2.6223    0.0000 N   0  0  0  0  0  0  0  0  0  0  0  0
   -2.2395    3.4473    0.0000 O   0  0  0  0  0  0  0  0  0  0  0  0
   -1.5250    2.2098    0.0000 O   0  5  0  0  0  0  0  0  0  0  0  0
   -4.3829    2.2098    0.0000 C   0  0  0  0  0  0  0  0  0  0  0  0
   -5.0973    2.6223    0.0000 C   0  0  0  0  0  0  0  0  0  0  0  0
   -4.3829    1.3848    0.0000 O   0  0  0  0  0  0  0  0  0  0  0  0
  1  2  2  0  0  0  0
  1  6  1  0  0  0  0
  2  3  1  0  0  0  0
  3  4  2  0  0  0  0
  4  5  1  0  0  0  0
  7  6  1  0  0  0  0
  5  6  2  0  0  0  0
  5  8  1  0  0  0  0
  7 10  2  0  0  0  0
  8  9  1  0  0  0  0
 11 10  1  0  0  0  0
 10  9  1  0  0  0  0
  9 12  2  0  0  0  0
 11 14  2  0  0  0  0
 12 13  1  0  0  0  0
 13 14  1  0  0  0  0
  2 15  1  0  0  0  0
 15 16  2  0  0  0  0
 15 17  1  0  0  0  0
 13 18  2  0  0  0  0
 14 19  1  0  0  0  0
 11 20  1  0  0  0  0
 20 21  1  0  0  0  0
 21 22  1  0  0  0  0
 22 23  1  0  0  0  0
 22 24  1  6  0  0  0
 23 25  2  0  0  0  0
 23 26  1  0  0  0  0
 24 27  1  0  0  0  0
 27 28  1  0  0  0  0
 27 29  2  0  0  0  0
M  CHG  2  17  -1  26  -1
M  END

>  <ACTIVITY>
5.00
$$$$
34565

  Mrv0541 05041708512D          

 20 24  0  0  0  0            999 V2000
   -4.5937    1.3875    0.0000 C   0  0  0  0  0  0  0  0  0  0  0  0
   -5.3082    0.9750    0.0000 C   0  0  0  0  0  0  0  0  0  0  0  0
   -5.3082    0.1500    0.0000 C   0  0  0  0  0  0  0  0  0  0  0  0
   -4.5937   -0.2625    0.0000 C   0  0  0  0  0  0  0  0  0  0  0  0
   -3.8793    0.9750    0.0000 C   0  0  0  0  0  0  0  0  0  0  0  0
   -3.8793    0.1500    0.0000 C   0  0  0  0  0  0  0  0  0  0  0  0
   -3.1648   -0.2625    0.0000 C   0  0  0  0  0  0  0  0  0  0  0  0
   -2.4504    0.1500    0.0000 C   0  0  0  0  0  0  0  0  0  0  0  0
   -2.4504    0.9750    0.0000 C   0  0  0  0  0  0  0  0  0  0  0  0
   -3.1648    1.3875    0.0000 C   0  0  0  0  0  0  0  0  0  0  0  0
   -2.4504    2.6250    0.0000 C   0  0  0  0  0  0  0  0  0  0  0  0
   -3.1648    2.2125    0.0000 C   0  0  0  0  0  0  0  0  0  0  0  0
   -1.7359    2.2125    0.0000 C   0  0  0  0  0  0  0  0  0  0  0  0
   -1.7359    1.3875    0.0000 C   0  0  0  0  0  0  0  0  0  0  0  0
   -1.0214    0.9750    0.0000 C   0  0  0  0  0  0  0  0  0  0  0  0
   -0.3070    1.3875    0.0000 C   0  0  0  0  0  0  0  0  0  0  0  0
   -1.0214    0.1500    0.0000 C   0  0  0  0  0  0  0  0  0  0  0  0
   -0.3070   -0.2625    0.0000 C   0  0  0  0  0  0  0  0  0  0  0  0
    0.4075    0.1500    0.0000 C   0  0  0  0  0  0  0  0  0  0  0  0
    0.4075    0.9750    0.0000 C   0  0  0  0  0  0  0  0  0  0  0  0
  1  2  2  0  0  0  0
  1  5  1  0  0  0  0
  2  3  1  0  0  0  0
  3  4  2  0  0  0  0
  4  6  1  0  0  0  0
 10  5  2  0  0  0  0
  6  5  1  0  0  0  0
  6  7  2  0  0  0  0
  7  8  1  0  0  0  0
  8  9  2  0  0  0  0
  9 14  1  0  0  0  0
 10  9  1  0  0  0  0
 12 10  1  0  0  0  0
 11 12  2  0  0  0  0
 11 13  1  0  0  0  0
 14 13  2  0  0  0  0
 14 15  1  0  0  0  0
 16 15  2  0  0  0  0
 15 17  1  0  0  0  0
 16 20  1  0  0  0  0
 17 18  2  0  0  0  0
 18 19  1  0  0  0  0
 19 20  2  0  0  0  0
  8 17  1  0  0  0  0
M  END

>  <ACTIVITY>
5.00
$$$$
47802

  Mrv0541 05041708512D          
 
 15 17  0  0  0  0            999 V2000
    0.4125    1.8073    0.0000 C   0  0  0  0  0  0  0  0  0  0  0  0
    0.9269    1.1623    0.0000 C   0  0  0  0  0  0  0  0  0  0  0  0
    0.7433    0.3580    0.0000 C   0  0  0  0  0  0  0  0  0  0  0  0
   -0.4125    1.8073    0.0000 C   0  0  0  0  0  0  0  0  0  0  0  0
   -0.7433    0.3580    0.0000 C   0  0  0  0  0  0  0  0  0  0  0  0
   -0.9269    1.1623    0.0000 C   0  0  0  0  0  0  0  0  0  0  0  0
    1.3481   -0.2032    0.0000 C   0  0  0  0  0  0  0  0  0  0  0  0
    2.1364    0.0400    0.0000 C   0  0  0  0  0  0  0  0  0  0  0  0
    2.3200    0.8443    0.0000 C   0  0  0  0  0  0  0  0  0  0  0  0
    1.7152    1.4054    0.0000 C   0  0  0  0  0  0  0  0  0  0  0  0
   -1.7152    1.4054    0.0000 C   0  0  0  0  0  0  0  0  0  0  0  0
   -2.3200    0.8443    0.0000 C   0  0  0  0  0  0  0  0  0  0  0  0
   -2.1364    0.0400    0.0000 C   0  0  0  0  0  0  0  0  0  0  0  0
   -1.3481   -0.2032    0.0000 C   0  0  0  0  0  0  0  0  0  0  0  0
    0.0000    0.0000    0.0000 N   0  0  0  0  0  0  0  0  0  0  0  0
  3 15  1  0  0  0  0
 15  5  1  0  0  0  0
  1  4  2  0  0  0  0
  1  2  1  0  0  0  0
  2  3  2  0  0  0  0
  2 10  1  0  0  0  0
  3  7  1  0  0  0  0
  4  6  1  0  0  0  0
  5  6  2  0  0  0  0
  5 14  1  0  0  0  0
  6 11  1  0  0  0  0
  7  8  2  0  0  0  0
  8  9  1  0  0  0  0
  9 10  2  0  0  0  0
 11 12  2  0  0  0  0
 12 13  1  0  0  0  0
 13 14  2  0  0  0  0
M  END

>  <ACTIVITY>
5.00
$$$$
73096

  Mrv0541 05041708512D          

 66 74  0  0  0  0            999 V2000
   -1.6487    0.7096    0.0000 C   0  0  0  0  0  0  0  0  0  0  0  0
   -0.7096    1.6696    0.0000 C   0  0  0  0  0  0  0  0  0  0  0  0
    0.0000    2.0870    0.0000 C   0  0  0  0  0  0  0  0  0  0  0  0
    0.7305    1.6696    0.0000 C   0  0  0  0  0  0  0  0  0  0  0  0
    1.6696    0.7096    0.0000 C   0  0  0  0  0  0  0  0  0  0  0  0
    2.0871    0.0000    0.0000 C   0  0  0  0  0  0  0  0  0  0  0  0
    1.6696   -0.7096    0.0000 C   0  0  0  0  0  0  0  0  0  0  0  0
    0.7305   -1.6697    0.0000 C   0  0  0  0  0  0  0  0  0  0  0  0
   -0.7096   -1.6697    0.0000 C   0  0  0  0  0  0  0  0  0  0  0  0
   -1.6487   -0.7096    0.0000 C   0  0  0  0  0  0  0  0  0  0  0  0
   -2.0661    0.0000    0.0000 C   0  0  0  0  0  0  0  0  0  0  0  0
    0.8557    0.8557    0.0000 N   0  3  0  0  0  0  0  0  0  0  0  0
    0.8557   -0.8557    0.0000 N   0  0  0  0  0  0  0  0  0  0  0  0
   -0.8348   -0.8557    0.0000 N   0  3  0  0  0  0  0  0  0  0  0  0
   -2.0244    1.4609    0.0000 C   0  0  0  0  0  0  0  0  0  0  0  0
   -2.8213    1.6744    0.0000 C   0  0  0  0  0  0  0  0  0  0  0  0
    1.4610    2.0453    0.0000 C   0  0  0  0  0  0  0  0  0  0  0  0
    2.0662   -1.4609    0.0000 C   0  0  0  0  0  0  0  0  0  0  0  0
    2.8630   -1.6744    0.0000 C   0  0  0  0  0  0  0  0  0  0  0  0
   -1.4400    2.0453    0.0000 C   0  0  0  0  0  0  0  0  0  0  0  0
   -1.6535    2.8422    0.0000 C   0  0  0  0  0  0  0  0  0  0  0  0
   -2.4504    3.0557    0.0000 C   0  0  0  0  0  0  0  0  0  0  0  0
    2.0662    1.4609    0.0000 C   0  0  0  0  0  0  0  0  0  0  0  0
   -0.8348    0.8557    0.0000 N   0  0  0  0  0  0  0  0  0  0  0  0
    0.0000    0.0000    0.0000 Mg  0  6  0  0  0  0  0  0  0  0  0  0
    2.8630    1.6744    0.0000 C   0  0  0  0  0  0  0  0  0  0  0  0
    3.4464    1.0910    0.0000 C   0  0  0  0  0  0  0  0  0  0  0  0
    1.6745    2.8422    0.0000 C   0  0  0  0  0  0  0  0  0  0  0  0
    1.0911    3.4256    0.0000 O   0  0  0  0  0  0  0  0  0  0  0  0
    0.0000   -2.0871    0.0000 C   0  0  0  0  0  0  0  0  0  0  0  0
    1.4610   -2.0453    0.0000 C   0  0  0  0  0  0  0  0  0  0  0  0
    1.2475   -2.8840    0.0000 C   0  0  0  0  0  0  0  0  0  0  0  0
    1.6600   -3.5985    0.0000 O   0  0  0  0  0  0  0  0  0  0  0  0
    0.2135   -2.8840    0.0000 C   0  5  0  0  0  0  0  0  0  0  0  0
   -1.0240   -3.5985    0.0000 O   0  0  0  0  0  0  0  0  0  0  0  0
   -0.1990   -3.5985    0.0000 C   0  0  0  0  0  0  0  0  0  0  0  0
    0.2135   -4.3129    0.0000 O   0  0  0  0  0  0  0  0  0  0  0  0
    1.0385   -4.3129    0.0000 C   0  0  0  0  0  0  0  0  0  0  0  0
   -1.4400   -2.0453    0.0000 C   0  0  1  0  0  0  0  0  0  0  0  0
   -1.4400   -2.8703    0.0000 C   0  0  0  0  0  0  0  0  0  0  0  0
   -2.1545   -3.2828    0.0000 C   0  0  0  0  0  0  0  0  0  0  0  0
   -2.1545   -4.1078    0.0000 C   0  0  0  0  0  0  0  0  0  0  0  0
   -1.4400   -4.5203    0.0000 O   0  0  0  0  0  0  0  0  0  0  0  0
   -2.8690   -4.5203    0.0000 O   0  0  0  0  0  0  0  0  0  0  0  0
   -3.5834   -4.1078    0.0000 C   0  0  0  0  0  0  0  0  0  0  0  0
   -4.2979   -4.5202    0.0000 C   0  0  0  0  0  0  0  0  0  0  0  0
   -5.0124   -4.1077    0.0000 C   0  0  0  0  0  0  0  0  0  0  0  0
   -5.7269   -4.5202    0.0000 C   0  0  0  0  0  0  0  0  0  0  0  0
   -5.0123   -3.2827    0.0000 C   0  0  0  0  0  0  0  0  0  0  0  0
   -6.4414   -4.1076    0.0000 C   0  0  0  0  0  0  0  0  0  0  0  0
   -7.1556   -4.5201    0.0000 C   0  0  0  0  0  0  0  0  0  0  0  0
   -7.8701   -4.1075    0.0000 C   0  0  1  0  0  0  0  0  0  0  0  0
   -8.5846   -4.5200    0.0000 C   0  0  0  0  0  0  0  0  0  0  0  0
   -7.8701   -3.2824    0.0000 C   0  0  0  0  0  0  0  0  0  0  0  0
   -9.2990   -4.1075    0.0000 C   0  0  0  0  0  0  0  0  0  0  0  0
  -10.0135   -4.5199    0.0000 C   0  0  0  0  0  0  0  0  0  0  0  0
  -10.7279   -4.1074    0.0000 C   0  0  1  0  0  0  0  0  0  0  0  0
  -11.4424   -4.5198    0.0000 C   0  0  0  0  0  0  0  0  0  0  0  0
  -10.7279   -3.2823    0.0000 C   0  0  0  0  0  0  0  0  0  0  0  0
  -12.1568   -4.1073    0.0000 C   0  0  0  0  0  0  0  0  0  0  0  0
  -12.8714   -4.5198    0.0000 C   0  0  0  0  0  0  0  0  0  0  0  0
  -13.5857   -4.1072    0.0000 C   0  0  0  0  0  0  0  0  0  0  0  0
  -13.5856   -3.2822    0.0000 C   0  0  0  0  0  0  0  0  0  0  0  0
  -14.3002   -4.5197    0.0000 C   0  0  0  0  0  0  0  0  0  0  0  0
   -2.0244   -1.4609    0.0000 C   0  0  2  0  0  0  0  0  0  0  0  0
   -2.8213   -1.6744    0.0000 C   0  0  0  0  0  0  0  0  0  0  0  0
  1 24  1  0  0  0  0
 15  1  1  0  0  0  0
  1 11  2  0  0  0  0
  2  3  2  0  0  0  0
 24  2  1  0  0  0  0
 20  2  1  0  0  0  0
  3  4  1  0  0  0  0
  4 12  2  0  0  0  0
 17  4  1  0  0  0  0
  5  6  2  0  0  0  0
 12  5  1  0  0  0  0
 23  5  1  0  0  0  0
  6  7  1  0  0  0  0
  7 13  1  0  0  0  0
  7 18  2  0  0  0  0
  8 30  1  0  0  0  0
 31  8  2  0  0  0  0
 13  8  1  0  0  0  0
  9 30  2  0  0  0  0
 14  9  1  0  0  0  0
 39  9  1  0  0  0  0
 10 11  1  0  0  0  0
 14 10  2  0  0  0  0
 65 10  1  0  0  0  0
 25 13  1  0  0  0  0
 20 15  2  0  0  0  0
 15 16  1  0  0  0  0
 17 23  2  0  0  0  0
 17 28  1  0  0  0  0
 18 31  1  0  0  0  0
 18 19  1  0  0  0  0
 65 39  1  0  0  0  0
 20 21  1  0  0  0  0
 21 22  2  0  0  0  0
 23 26  1  0  0  0  0
 24 25  1  0  0  0  0
 26 27  2  0  0  0  0
 28 29  2  0  0  0  0
 30 34  1  0  0  0  0
 31 32  1  0  0  0  0
 34 32  1  0  0  0  0
 32 33  2  0  0  0  0
 34 36  1  0  0  0  0
 36 35  2  0  0  0  0
 36 37  1  0  0  0  0
 37 38  1  0  0  0  0
 41 40  1  0  0  0  0
 39 40  1  1  0  0  0
 41 42  1  0  0  0  0
 42 44  1  0  0  0  0
 42 43  2  0  0  0  0
 45 44  1  0  0  0  0
 46 45  1  0  0  0  0
 47 46  2  0  0  0  0
 48 47  1  0  0  0  0
 49 47  1  0  0  0  0
 50 48  1  0  0  0  0
 51 50  1  0  0  0  0
 52 51  1  0  0  0  0
 53 52  1  0  0  0  0
 52 54  1  1  0  0  0
 55 53  1  0  0  0  0
 56 55  1  0  0  0  0
 57 56  1  0  0  0  0
 58 57  1  0  0  0  0
 57 59  1  1  0  0  0
 60 58  1  0  0  0  0
 61 60  1  0  0  0  0
 62 61  1  0  0  0  0
 63 62  1  0  0  0  0
 64 62  1  0  0  0  0
 65 66  1  6  0  0  0
 12 25  1  0  0  0  0
 14 25  1  0  0  0  0
M  CHG  4  12   1  14   1  25  -2  34  -1
M  END

>  <ACTIVITY>
5.00
$$$$
57971

  Mrv0541 05041708512D          

 36 39  0  0  0  0            999 V2000
   18.2204  -23.4611    0.0000 C   0  0  1  0  0  0  0  0  0  0  0  0
   17.5059  -23.8736    0.0000 C   0  0  1  0  0  0  0  0  0  0  0  0
   17.5059  -24.6986    0.0000 C   0  0  0  0  0  0  0  0  0  0  0  0
   18.2204  -25.1111    0.0000 C   0  0  1  0  0  0  0  0  0  0  0  0
   18.9349  -24.6986    0.0000 C   0  0  2  0  0  0  0  0  0  0  0  0
   18.9349  -23.8736    0.0000 C   0  0  2  0  0  0  0  0  0  0  0  0
   18.2204  -22.6361    0.0000 O   0  0  0  0  0  0  0  0  0  0  0  0
   19.6493  -25.1111    0.0000 O   0  0  0  0  0  0  0  0  0  0  0  0
   16.7915  -23.4611    0.0000 N   0  3  0  0  0  0  0  0  0  0  0  0
   18.2204  -25.9361    0.0000 N   0  3  0  0  0  0  0  0  0  0  0  0
   17.5059  -26.3486    0.0000 C   0  0  0  0  0  0  0  0  0  0  0  0
   19.6493  -23.4611    0.0000 O   0  0  0  0  0  0  0  0  0  0  0  0
   20.3638  -23.8736    0.0000 C   0  0  1  0  0  0  0  0  0  0  0  0
   21.0783  -23.4611    0.0000 C   0  0  2  0  0  0  0  0  0  0  0  0
   20.3638  -24.6986    0.0000 O   0  0  0  0  0  0  0  0  0  0  0  0
   21.0783  -25.1111    0.0000 C   0  0  1  0  0  0  0  0  0  0  0  0
   21.7927  -24.6986    0.0000 C   0  0  1  0  0  0  0  0  0  0  0  0
   21.7927  -23.8736    0.0000 C   0  0  2  0  0  0  0  0  0  0  0  0
   21.0783  -25.9361    0.0000 C   0  0  0  0  0  0  0  0  0  0  0  0
   21.0783  -22.6361    0.0000 O   0  0  0  0  0  0  0  0  0  0  0  0
   22.5072  -23.4611    0.0000 O   0  0  0  0  0  0  0  0  0  0  0  0
   20.3638  -26.3486    0.0000 O   0  0  0  0  0  0  0  0  0  0  0  0
   22.5072  -25.1111    0.0000 O   0  0  0  0  0  0  0  0  0  0  0  0
   22.9330  -21.2914    0.0000 C   0  0  1  0  0  0  0  0  0  0  0  0
   22.2185  -21.7039    0.0000 O   0  0  0  0  0  0  0  0  0  0  0  0
   22.2185  -22.5290    0.0000 C   0  0  1  0  0  0  0  0  0  0  0  0
   22.9330  -22.9415    0.0000 C   0  0  1  0  0  0  0  0  0  0  0  0
   23.6474  -22.5290    0.0000 C   0  0  2  0  0  0  0  0  0  0  0  0
   23.6474  -21.7039    0.0000 C   0  0  1  0  0  0  0  0  0  0  0  0
   22.9330  -23.7665    0.0000 O   0  0  0  0  0  0  0  0  0  0  0  0
   24.3619  -21.2914    0.0000 O   0  0  0  0  0  0  0  0  0  0  0  0
   24.3619  -22.9415    0.0000 O   0  0  0  0  0  0  0  0  0  0  0  0
   22.9330  -20.4664    0.0000 C   0  0  0  0  0  0  0  0  0  0  0  0
   22.2185  -20.0539    0.0000 N   0  3  0  0  0  0  0  0  0  0  0  0
   23.6474  -20.0539    0.0000 C   0  0  0  0  0  0  0  0  0  0  0  0
   23.6474  -19.2289    0.0000 O   0  0  0  0  0  0  0  0  0  0  0  0
  1  2  1  0  0  0  0
  2  3  1  0  0  0  0
  3  4  1  0  0  0  0
  4  5  1  0  0  0  0
  5  6  1  0  0  0  0
  1  6  1  0  0  0  0
  1  7  1  6  0  0  0
  5  8  1  6  0  0  0
  2  9  1  1  0  0  0
  4 10  1  1  0  0  0
 10 11  1  0  0  0  0
  6 12  1  1  0  0  0
 13 12  1  1  0  0  0
 14 13  1  0  0  0  0
 13 15  1  0  0  0  0
 15 16  1  0  0  0  0
 16 17  1  0  0  0  0
 17 18  1  0  0  0  0
 14 18  1  0  0  0  0
 16 19  1  1  0  0  0
 14 20  1  1  0  0  0
 18 21  1  1  0  0  0
 19 22  1  0  0  0  0
 17 23  1  1  0  0  0
 24 25  1  0  0  0  0
 25 26  1  0  0  0  0
 26 27  1  0  0  0  0
 27 28  1  0  0  0  0
 28 29  1  0  0  0  0
 24 29  1  0  0  0  0
 26 20  1  1  0  0  0
 26 21  1  6  0  0  0
 27 30  1  1  0  0  0
 29 31  1  6  0  0  0
 28 32  1  6  0  0  0
 24 33  1  6  0  0  0
 33 34  1  0  0  0  0
 33 35  1  0  0  0  0
 35 36  1  0  0  0  0
M  CHG  3   9   1  10   1  34   1
M  END

>  <ACTIVITY>
5.00
$$$$
3387

  Mrv0541 05041708512D          

 18 20  0  0  0  0            999 V2000
    5.9007   -6.9677    0.0000 N   0  0  0  0  0  0  0  0  0  0  0  0
    5.9072   -7.8066    0.0000 C   0  0  0  0  0  0  0  0  0  0  0  0
    5.1575   -6.6209    0.0000 C   0  0  0  0  0  0  0  0  0  0  0  0
    6.6438   -6.6175    0.0000 C   0  0  0  0  0  0  0  0  0  0  0  0
    6.3036   -5.1741    0.0000 C   0  0  0  0  0  0  0  0  0  0  0  0
    5.4845   -5.1741    0.0000 C   0  0  0  0  0  0  0  0  0  0  0  0
    6.8321   -5.8050    0.0000 C   0  0  0  0  0  0  0  0  0  0  0  0
    4.9692   -5.8149    0.0000 C   0  0  0  0  0  0  0  0  0  0  0  0
    6.6339   -8.2030    0.0000 O   0  0  0  0  0  0  0  0  0  0  0  0
    5.2037   -8.2261    0.0000 N   0  0  0  0  0  0  0  0  0  0  0  0
    7.2582   -7.1724    0.0000 C   0  0  0  0  0  0  0  0  0  0  0  0
    4.5530   -7.1824    0.0000 C   0  0  0  0  0  0  0  0  0  0  0  0
    7.6248   -5.5573    0.0000 C   0  0  0  0  0  0  0  0  0  0  0  0
    4.1864   -5.5771    0.0000 C   0  0  0  0  0  0  0  0  0  0  0  0
    8.0377   -6.9247    0.0000 C   0  0  0  0  0  0  0  0  0  0  0  0
    3.7570   -6.9280    0.0000 C   0  0  0  0  0  0  0  0  0  0  0  0
    3.5786   -6.1419    0.0000 C   0  0  0  0  0  0  0  0  0  0  0  0
    8.2293   -6.1122    0.0000 C   0  0  0  0  0  0  0  0  0  0  0  0
  2  1  1  0  0  0  0
  3  1  1  0  0  0  0
  4  1  1  0  0  0  0
  5  7  1  0  0  0  0
  6  8  1  0  0  0  0
  7  4  1  0  0  0  0
  8  3  2  0  0  0  0
  9  2  2  0  0  0  0
 10  2  1  0  0  0  0
 11  4  2  0  0  0  0
 12  3  1  0  0  0  0
 13  7  2  0  0  0  0
 14  8  1  0  0  0  0
 15 11  1  0  0  0  0
 16 12  2  0  0  0  0
 17 16  1  0  0  0  0
 18 15  2  0  0  0  0
  5  6  2  0  0  0  0
 13 18  1  0  0  0  0
 14 17  2  0  0  0  0
M  END

>  <ACTIVITY>
5.00
$$$$
58306

  Mrv0541 05041708512D          

 54 57  0  0  0  0            999 V2000
   12.9656   -9.4801    0.0000 C   0  0  0  0  0  0  0  0  0  0  0  0
   12.2394   -9.9173    0.0000 C   0  0  0  0  0  0  0  0  0  0  0  0
   12.9582   -8.6391    0.0000 C   0  0  0  0  0  0  0  0  0  0  0  0
   13.7103   -9.8877    0.0000 C   0  0  0  0  0  0  0  0  0  0  0  0
   11.4984   -9.5024    0.0000 C   0  0  0  0  0  0  0  0  0  0  0  0
   11.9911  -10.6361    0.0000 C   0  0  0  0  0  0  0  0  0  0  0  0
   13.6806   -8.2019    0.0000 C   0  0  0  0  0  0  0  0  0  0  0  0
   12.2171   -8.2204    0.0000 C   0  0  0  0  0  0  0  0  0  0  0  0
   14.4328   -9.4506    0.0000 C   0  0  0  0  0  0  0  0  0  0  0  0
   13.7251  -10.6916    0.0000 O   0  0  0  0  0  0  0  0  0  0  0  0
   10.8944   -9.8951    0.0000 O   0  0  0  0  0  0  0  0  0  0  0  0
   11.4836   -8.6501    0.0000 C   0  0  0  0  0  0  0  0  0  0  0  0
   11.0538  -10.6398    0.0000 C   0  0  2  0  0  0  0  0  0  0  0  0
   12.4617  -11.2920    0.0000 O   0  0  0  0  0  0  0  0  0  0  0  0
   14.4143   -8.6094    0.0000 C   0  0  0  0  0  0  0  0  0  0  0  0
   13.6695   -7.3979    0.0000 O   0  0  0  0  0  0  0  0  0  0  0  0
   12.2319   -7.3164    0.0000 O   0  5  0  0  0  0  0  0  0  0  0  0
   14.5291  -10.6916    0.0000 C   0  0  0  0  0  0  0  0  0  0  0  0
   11.4947   -7.7053    0.0000 C   0  0  0  0  0  0  0  0  0  0  0  0
    9.4050  -10.6435    0.0000 O   0  0  0  0  0  0  0  0  0  0  0  0
   10.6462  -11.3364    0.0000 C   0  0  0  0  0  0  0  0  0  0  0  0
   15.1330   -8.1833    0.0000 N   0  0  0  0  0  0  0  0  0  0  0  0
   14.9329  -11.3883    0.0000 C   0  0  0  0  0  0  0  0  0  0  0  0
    9.4050   -9.8136    0.0000 C   0  0  0  0  0  0  0  0  0  0  0  0
   15.1182   -7.3498    0.0000 C   0  0  0  0  0  0  0  0  0  0  0  0
   14.5291  -12.0848    0.0000 O   0  5  0  0  0  0  0  0  0  0  0  0
   15.7406  -11.3809    0.0000 O   0  0  0  0  0  0  0  0  0  0  0  0
   10.1238   -9.3913    0.0000 C   0  0  0  0  0  0  0  0  0  0  0  0
   15.8370   -6.9348    0.0000 C   0  0  0  0  0  0  0  0  0  0  0  0
   14.3995   -6.9422    0.0000 O   0  0  0  0  0  0  0  0  0  0  0  0
   10.1312   -8.5687    0.0000 C   0  0  1  0  0  0  0  0  0  0  0  0
   15.8444   -6.0937    0.0000 C   0  0  0  0  0  0  0  0  0  0  0  0
   16.5372   -7.3349    0.0000 C   0  0  0  0  0  0  0  0  0  0  0  0
   10.8463   -8.1574    0.0000 C   0  0  2  0  0  0  0  0  0  0  0  0
    9.4347   -8.1612    0.0000 O   0  0  0  0  0  0  0  0  0  0  0  0
   15.1034   -5.6935    0.0000 C   0  0  0  0  0  0  0  0  0  0  0  0
   10.8573   -7.3423    0.0000 C   0  0  2  0  0  0  0  0  0  0  0  0
   10.1052   -7.6757    0.0000 C   0  0  0  0  0  0  0  0  0  0  0  0
    8.7344   -8.5613    0.0000 C   0  0  0  0  0  0  0  0  0  0  0  0
   14.3921   -6.1197    0.0000 C   0  0  0  0  0  0  0  0  0  0  0  0
   11.5687   -6.9384    0.0000 C   0  0  1  0  0  0  0  0  0  0  0  0
   10.1645   -6.9310    0.0000 O   0  0  0  0  0  0  0  0  0  0  0  0
   13.6806   -5.7083    0.0000 C   0  0  1  0  0  0  0  0  0  0  0  0
   11.5687   -6.1233    0.0000 C   0  0  1  0  0  0  0  0  0  0  0  0
   10.9055   -6.5123    0.0000 C   0  0  0  0  0  0  0  0  0  0  0  0
    9.4643   -6.5272    0.0000 C   0  0  0  0  0  0  0  0  0  0  0  0
   12.9730   -6.1233    0.0000 C   0  0  1  0  0  0  0  0  0  0  0  0
   13.6769   -4.9043    0.0000 C   0  0  0  0  0  0  0  0  0  0  0  0
   12.2690   -5.7194    0.0000 C   0  0  1  0  0  0  0  0  0  0  0  0
   10.8722   -5.7194    0.0000 O   0  0  0  0  0  0  0  0  0  0  0  0
    8.7677   -6.9310    0.0000 C   0  0  0  0  0  0  0  0  0  0  0  0
    9.4643   -5.7194    0.0000 O   0  0  0  0  0  0  0  0  0  0  0  0
   12.9730   -6.9384    0.0000 O   0  0  0  0  0  0  0  0  0  0  0  0
   12.2654   -4.9155    0.0000 C   0  0  0  0  0  0  0  0  0  0  0  0
  1  2  1  0  0  0  0
  1  3  2  0  0  0  0
  1  4  1  0  0  0  0
  2  5  2  0  0  0  0
  2  6  1  0  0  0  0
  3  7  1  0  0  0  0
  3  8  1  0  0  0  0
  4  9  2  0  0  0  0
  4 10  1  0  0  0  0
  5 11  1  0  0  0  0
  5 12  1  0  0  0  0
  6 13  1  0  0  0  0
  6 14  2  0  0  0  0
  7 15  2  0  0  0  0
  7 16  1  0  0  0  0
  8 17  1  0  0  0  0
 10 18  1  0  0  0  0
 12 19  1  0  0  0  0
 13 20  1  0  0  0  0
 13 21  1  6  0  0  0
 15 22  1  0  0  0  0
 18 23  1  0  0  0  0
 20 24  1  0  0  0  0
 22 25  1  0  0  0  0
 23 26  1  0  0  0  0
 23 27  2  0  0  0  0
 24 28  2  0  0  0  0
 25 29  1  0  0  0  0
 25 30  2  0  0  0  0
 28 31  1  0  0  0  0
 29 32  2  0  0  0  0
 29 33  1  0  0  0  0
 31 34  1  0  0  0  0
 31 35  1  6  0  0  0
 32 36  1  0  0  0  0
 34 37  1  0  0  0  0
 34 38  1  6  0  0  0
 35 39  1  0  0  0  0
 36 40  2  0  0  0  0
 37 41  1  0  0  0  0
 37 42  1  1  0  0  0
 40 43  1  0  0  0  0
 41 44  1  0  0  0  0
 41 45  1  1  0  0  0
 42 46  1  0  0  0  0
 43 47  1  0  0  0  0
 43 48  1  1  0  0  0
 44 49  1  0  0  0  0
 44 50  1  6  0  0  0
 46 51  1  0  0  0  0
 46 52  2  0  0  0  0
 47 53  1  6  0  0  0
 49 54  1  6  0  0  0
  8 12  2  0  0  0  0
  9 15  1  0  0  0  0
 11 13  1  0  0  0  0
 47 49  1  0  0  0  0
M  CHG  2  17  -1  26  -1
M  END

>  <ACTIVITY>
5.00
$$$$
58686

  Mrv0541 05041708512D          

 46 54  0  0  0  0            999 V2000
   -1.6487    0.7096    0.0000 C   0  0  0  0  0  0  0  0  0  0  0  0
   -0.7096    1.6696    0.0000 C   0  0  0  0  0  0  0  0  0  0  0  0
    0.0000    2.0870    0.0000 C   0  0  0  0  0  0  0  0  0  0  0  0
    0.7305    1.6696    0.0000 C   0  0  0  0  0  0  0  0  0  0  0  0
    1.6696    0.7096    0.0000 C   0  0  0  0  0  0  0  0  0  0  0  0
    2.0871    0.0000    0.0000 C   0  0  0  0  0  0  0  0  0  0  0  0
    1.6696   -0.7096    0.0000 C   0  0  0  0  0  0  0  0  0  0  0  0
    0.7305   -1.6697    0.0000 C   0  0  0  0  0  0  0  0  0  0  0  0
   -0.7096   -1.6697    0.0000 C   0  0  0  0  0  0  0  0  0  0  0  0
   -1.6487   -0.7096    0.0000 C   0  0  0  0  0  0  0  0  0  0  0  0
   -2.0661    0.0000    0.0000 C   0  0  0  0  0  0  0  0  0  0  0  0
    0.8557    0.8557    0.0000 N   0  3  0  0  0  0  0  0  0  0  0  0
    0.8557   -0.8557    0.0000 N   0  0  0  0  0  0  0  0  0  0  0  0
   -0.8348   -0.8557    0.0000 N   0  3  0  0  0  0  0  0  0  0  0  0
   -2.0244    1.4609    0.0000 C   0  0  0  0  0  0  0  0  0  0  0  0
    1.4610    2.0453    0.0000 C   0  0  0  0  0  0  0  0  0  0  0  0
    2.0662   -1.4609    0.0000 C   0  0  0  0  0  0  0  0  0  0  0  0
   -1.4400    2.0453    0.0000 C   0  0  0  0  0  0  0  0  0  0  0  0
   -1.6535    2.8422    0.0000 C   0  0  0  0  0  0  0  0  0  0  0  0
   -2.4504    3.0557    0.0000 C   0  0  0  0  0  0  0  0  0  0  0  0
    2.0662    1.4609    0.0000 C   0  0  0  0  0  0  0  0  0  0  0  0
   -0.8348    0.8557    0.0000 N   0  0  0  0  0  0  0  0  0  0  0  0
    0.0000    0.0000    0.0000 Mg  0  6  0  0  0  0  0  0  0  0  0  0
    1.6745    2.8422    0.0000 C   0  0  0  0  0  0  0  0  0  0  0  0
    1.0911    3.4256    0.0000 O   0  0  0  0  0  0  0  0  0  0  0  0
    0.0000   -2.0871    0.0000 C   0  0  0  0  0  0  0  0  0  0  0  0
    1.4610   -2.0453    0.0000 C   0  0  0  0  0  0  0  0  0  0  0  0
    1.2475   -2.8840    0.0000 C   0  0  0  0  0  0  0  0  0  0  0  0
    1.6600   -3.5985    0.0000 O   0  0  0  0  0  0  0  0  0  0  0  0
    0.2135   -2.8840    0.0000 C   0  0  2  0  0  0  0  0  0  0  0  0
   -1.0240   -3.5985    0.0000 O   0  0  0  0  0  0  0  0  0  0  0  0
   -0.1990   -3.5985    0.0000 C   0  0  0  0  0  0  0  0  0  0  0  0
    0.2135   -4.3129    0.0000 O   0  0  0  0  0  0  0  0  0  0  0  0
   -1.4400   -2.0453    0.0000 C   0  0  1  0  0  0  0  0  0  0  0  0
   -1.4400   -2.8703    0.0000 C   0  0  0  0  0  0  0  0  0  0  0  0
   -2.1545   -3.2828    0.0000 C   0  0  0  0  0  0  0  0  0  0  0  0
   -2.1545   -4.1078    0.0000 C   0  0  0  0  0  0  0  0  0  0  0  0
   -1.4400   -4.5203    0.0000 O   0  0  0  0  0  0  0  0  0  0  0  0
   -2.8690   -4.5203    0.0000 O   0  5  0  0  0  0  0  0  0  0  0  0
   -2.0244   -1.4609    0.0000 C   0  0  2  0  0  0  0  0  0  0  0  0
    1.0385   -4.3129    0.0000 C   0  0  0  0  0  0  0  0  0  0  0  0
    2.8631   -1.6744    0.0000 C   0  0  0  0  0  0  0  0  0  0  0  0
   -2.8213    1.6744    0.0000 C   0  0  0  0  0  0  0  0  0  0  0  0
   -2.8213   -1.6744    0.0000 C   0  0  0  0  0  0  0  0  0  0  0  0
    3.4464    1.0910    0.0000 C   0  0  0  0  0  0  0  0  0  0  0  0
    2.8631    1.6744    0.0000 C   0  0  0  0  0  0  0  0  0  0  0  0
  1 22  1  0  0  0  0
 15  1  1  0  0  0  0
  1 11  2  0  0  0  0
  2  3  2  0  0  0  0
 22  2  1  0  0  0  0
 18  2  1  0  0  0  0
  3  4  1  0  0  0  0
  4 12  2  0  0  0  0
 16  4  1  0  0  0  0
  5  6  2  0  0  0  0
 12  5  1  0  0  0  0
 21  5  1  0  0  0  0
  6  7  1  0  0  0  0
  7 13  1  0  0  0  0
  7 17  2  0  0  0  0
  8 26  1  0  0  0  0
 27  8  2  0  0  0  0
 13  8  1  0  0  0  0
  9 26  2  0  0  0  0
 14  9  1  0  0  0  0
 34  9  1  0  0  0  0
 10 11  1  0  0  0  0
 14 10  2  0  0  0  0
 40 10  1  0  0  0  0
 23 13  1  0  0  0  0
 18 15  2  0  0  0  0
 16 21  2  0  0  0  0
 16 24  1  0  0  0  0
 17 27  1  0  0  0  0
 40 34  1  0  0  0  0
 18 19  1  0  0  0  0
 19 20  2  0  0  0  0
 22 23  1  0  0  0  0
 24 25  2  0  0  0  0
 26 30  1  0  0  0  0
 27 28  1  0  0  0  0
 30 28  1  0  0  0  0
 28 29  2  0  0  0  0
 30 32  1  6  0  0  0
 32 31  2  0  0  0  0
 32 33  1  0  0  0  0
 36 35  1  0  0  0  0
 34 35  1  1  0  0  0
 36 37  1  0  0  0  0
 37 39  1  0  0  0  0
 37 38  2  0  0  0  0
 33 41  1  0  0  0  0
 17 42  1  0  0  0  0
 15 43  1  0  0  0  0
 40 44  1  6  0  0  0
 21 46  1  0  0  0  0
 45 46  1  0  0  0  0
 12 23  1  0  0  0  0
 14 23  1  0  0  0  0
M  CHG  4  12   1  14   1  23  -2  39  -1
M  END

>  <ACTIVITY>
5.00
$$$$
72303

  Mrv0541 05041708512D          

 42 44  0  0  0  0            999 V2000
    6.2839    1.0295    0.0000 C   0  0  0  0  0  0  0  0  0  0  0  0
    5.7006    1.6129    0.0000 C   0  0  0  0  0  0  0  0  0  0  0  0
    5.4871    0.8160    0.0000 C   0  0  0  0  0  0  0  0  0  0  0  0
   -4.0090   -0.5161    0.0000 C   0  0  0  0  0  0  0  0  0  0  0  0
   -4.0090   -1.3412    0.0000 C   0  0  2  0  0  0  0  0  0  0  0  0
   -3.2969   -1.7495    0.0000 C   0  0  1  0  0  0  0  0  0  0  0  0
   -3.2969   -0.0995    0.0000 C   0  0  0  0  0  0  0  0  0  0  0  0
   -2.5849   -0.5161    0.0000 C   0  0  1  0  0  0  0  0  0  0  0  0
   -2.5839   -1.3412    0.0000 C   0  0  1  0  0  0  0  0  0  0  0  0
   -1.8728   -1.7505    0.0000 C   0  0  0  0  0  0  0  0  0  0  0  0
   -1.1582   -1.3394    0.0000 C   0  0  0  0  0  0  0  0  0  0  0  0
   -1.8749   -0.1005    0.0000 C   0  0  1  0  0  0  0  0  0  0  0  0
   -1.1600   -0.5163    0.0000 C   0  0  1  0  0  0  0  0  0  0  0  0
   -0.5436    0.0351    0.0000 C   0  0  0  0  0  0  0  0  0  0  0  0
   -0.8776    0.7918    0.0000 C   0  0  0  0  0  0  0  0  0  0  0  0
   -1.7003    0.7080    0.0000 C   0  0  0  0  0  0  0  0  0  0  0  0
   -4.7228   -1.7547    0.0000 O   0  0  0  0  0  0  0  0  0  0  0  0
   -5.4379   -1.3432    0.0000 C   0  0  0  0  0  0  0  0  0  0  0  0
   -6.1519   -1.7568    0.0000 C   0  0  0  0  0  0  0  0  0  0  0  0
   -5.4391   -0.5182    0.0000 O   0  0  0  0  0  0  0  0  0  0  0  0
   -3.2972   -2.5745    0.0000 C   0  0  0  0  0  0  0  0  0  0  0  0
   -4.0118   -2.9868    0.0000 O   0  0  0  0  0  0  0  0  0  0  0  0
   -2.5829   -2.9872    0.0000 O   0  5  0  0  0  0  0  0  0  0  0  0
   -2.5881   -2.1620    0.0000 H   0  0  0  0  0  0  0  0  0  0  0  0
   -3.9906   -2.2011    0.0000 C   0  0  0  0  0  0  0  0  0  0  0  0
   -2.5923    0.3089    0.0000 C   0  0  0  0  0  0  0  0  0  0  0  0
   -1.8798   -0.9245    0.0000 H   0  0  0  0  0  0  0  0  0  0  0  0
   -0.4505   -0.9287    0.0000 C   0  0  0  0  0  0  0  0  0  0  0  0
   -0.4628    1.5050    0.0000 O   0  0  0  0  0  0  0  0  0  0  0  0
    0.2629   -0.1390    0.0000 C   0  0  0  0  0  0  0  0  0  0  0  0
    0.5153   -0.9245    0.0000 C   0  0  0  0  0  0  0  0  0  0  0  0
    0.8169    0.4723    0.0000 C   0  0  0  0  0  0  0  0  0  0  0  0
    1.6232    0.2981    0.0000 C   0  0  0  0  0  0  0  0  0  0  0  0
    2.1773    0.9094    0.0000 C   0  0  0  0  0  0  0  0  0  0  0  0
    2.9838    0.7353    0.0000 C   0  0  0  0  0  0  0  0  0  0  0  0
    3.5378    1.3466    0.0000 C   0  0  0  0  0  0  0  0  0  0  0  0
    4.3442    1.1725    0.0000 C   0  0  0  0  0  0  0  0  0  0  0  0
    4.8982    1.7838    0.0000 C   0  0  0  0  0  0  0  0  0  0  0  0
    3.2854    2.1321    0.0000 O   0  0  0  0  0  0  0  0  0  0  0  0
    3.8394    2.7434    0.0000 C   0  0  0  0  0  0  0  0  0  0  0  0
    6.2586    2.2209    0.0000 O   0  0  0  0  0  0  0  0  0  0  0  0
    3.2361   -0.0502    0.0000 C   0  0  0  0  0  0  0  0  0  0  0  0
  2  1  1  0  0  0  0
  3  2  1  0  0  0  0
 38  2  1  0  0  0  0
  2 41  1  0  0  0  0
  4  7  1  0  0  0  0
  4  5  1  0  0  0  0
  5  6  1  0  0  0  0
  5 17  1  6  0  0  0
  6 21  1  1  0  0  0
  6 25  1  0  0  0  0
  6  9  1  0  0  0  0
  8  7  1  0  0  0  0
  8 12  1  0  0  0  0
  8 26  1  1  0  0  0
  8  9  1  0  0  0  0
  9 10  1  0  0  0  0
  9 24  1  6  0  0  0
 10 11  1  0  0  0  0
 11 13  1  0  0  0  0
 12 13  1  0  0  0  0
 12 27  1  1  0  0  0
 16 12  1  0  0  0  0
 13 28  1  6  0  0  0
 13 14  1  0  0  0  0
 14 30  2  0  0  0  0
 14 15  1  0  0  0  0
 15 29  2  0  0  0  0
 15 16  1  0  0  0  0
 17 18  1  0  0  0  0
 18 19  1  0  0  0  0
 18 20  2  0  0  0  0
 21 22  2  0  0  0  0
 21 23  1  0  0  0  0
 30 31  1  0  0  0  0
 30 32  1  0  0  0  0
 32 33  2  0  0  0  0
 33 34  1  0  0  0  0
 34 35  2  0  0  0  0
 35 36  1  0  0  0  0
 35 42  1  0  0  0  0
 36 37  1  0  0  0  0
 36 39  1  0  0  0  0
 37 38  2  0  0  0  0
 39 40  1  0  0  0  0
M  CHG  1  23  -1
M  END

>  <ACTIVITY>
5.00
$$$$
77951
ChEBI
  Mrv0541 05041708512D          

 27 31  0  0  0  0            999 V2000
   -3.2116    0.9429    0.0000 C   0  0  0  0  0  0  0  0  0  0  0  0
   -3.9261    0.5304    0.0000 C   0  0  0  0  0  0  0  0  0  0  0  0
   -3.9261   -0.2947    0.0000 C   0  0  0  0  0  0  0  0  0  0  0  0
   -3.2116   -0.7072    0.0000 C   0  0  0  0  0  0  0  0  0  0  0  0
   -2.4971   -0.2947    0.0000 C   0  0  0  0  0  0  0  0  0  0  0  0
   -2.4971    0.5304    0.0000 C   0  0  0  0  0  0  0  0  0  0  0  0
   -1.7827    0.9429    0.0000 C   0  0  0  0  0  0  0  0  0  0  0  0
   -1.7827   -0.7072    0.0000 C   0  0  0  0  0  0  0  0  0  0  0  0
   -1.0682   -0.2947    0.0000 C   0  0  0  0  0  0  0  0  0  0  0  0
   -1.0682    0.5304    0.0000 C   0  0  0  0  0  0  0  0  0  0  0  0
   -0.3537    0.9429    0.0000 C   0  0  0  0  0  0  0  0  0  0  0  0
   -0.3537   -0.7072    0.0000 C   0  0  0  0  0  0  0  0  0  0  0  0
    0.3607    0.5304    0.0000 C   0  0  0  0  0  0  0  0  0  0  0  0
   -1.7827   -1.5322    0.0000 O   0  0  0  0  0  0  0  0  0  0  0  0
   -1.7827    1.7679    0.0000 O   0  0  0  0  0  0  0  0  0  0  0  0
   -3.2116    1.7679    0.0000 O   0  0  0  0  0  0  0  0  0  0  0  0
   -4.6405   -0.7072    0.0000 O   0  5  0  0  0  0  0  0  0  0  0  0
   -0.3537    1.7679    0.0000 O   0  0  0  0  0  0  0  0  0  0  0  0
    0.3607   -0.2947    0.0000 C   0  0  0  0  0  0  0  0  0  0  0  0
    1.2008   -0.5070    0.0000 O   0  0  0  0  0  0  0  0  0  0  0  0
    1.6501    0.1849    0.0000 C   0  0  2  0  0  0  0  0  0  0  0  0
    1.5863    1.5182    0.0000 C   0  0  0  0  0  0  0  0  0  0  0  0
    1.1309    0.8261    0.0000 C   0  0  1  0  0  0  0  0  0  0  0  0
    2.4216    0.4770    0.0000 O   0  0  0  0  0  0  0  0  0  0  0  0
    2.3822    1.3011    0.0000 C   0  0  0  0  0  0  0  0  0  0  0  0
    0.7184    1.5405    0.0000 H   0  0  0  0  0  0  0  0  0  0  0  0
    2.2334   -0.3984    0.0000 H   0  0  0  0  0  0  0  0  0  0  0  0
  1  2  2  0  0  0  0
  1  6  1  0  0  0  0
  2  3  1  0  0  0  0
  3  4  2  0  0  0  0
  4  5  1  0  0  0  0
  7  6  1  0  0  0  0
  5  6  2  0  0  0  0
  5  8  1  0  0  0  0
  7 10  1  0  0  0  0
  8  9  1  0  0  0  0
 11 10  1  0  0  0  0
 10  9  2  0  0  0  0
  9 12  1  0  0  0  0
 11 13  2  0  0  0  0
 12 19  2  0  0  0  0
  8 14  2  0  0  0  0
  7 15  2  0  0  0  0
  1 16  1  0  0  0  0
  3 17  1  0  0  0  0
 11 18  1  0  0  0  0
 23 13  1  0  0  0  0
 19 20  1  0  0  0  0
 21 20  1  0  0  0  0
 13 19  1  0  0  0  0
 21 24  1  0  0  0  0
 23 22  1  0  0  0  0
 24 25  1  0  0  0  0
 22 25  1  0  0  0  0
 21 23  1  0  0  0  0
 23 26  1  1  0  0  0
 21 27  1  1  0  0  0
M  CHG  1  17  -1
M  END

>  <ACTIVITY>
5.00
$$$$
60780

  Mrv0541 05041708512D          

 50 55  0  0  1  0            999 V2000
    8.0965   -5.2402    0.0000 N   0  0  0  0  0  0  0  0  0  0  0  0
    6.7014   -6.8779    0.0000 N   0  0  0  0  0  0  0  0  0  0  0  0
    8.8850   -5.4828    0.0000 C   0  0  0  0  0  0  0  0  0  0  0  0
    6.7014   -7.7271    0.0000 C   0  0  0  0  0  0  0  0  0  0  0  0
    8.8850   -6.6353    0.0000 C   0  0  0  0  0  0  0  0  0  0  0  0
    8.0965   -7.7271    0.0000 C   0  0  0  0  0  0  0  0  0  0  0  0
    6.7014   -4.3910    0.0000 C   0  0  0  0  0  0  0  0  0  0  0  0
    5.9129   -5.4828    0.0000 C   0  0  0  0  0  0  0  0  0  0  0  0
    6.7014   -5.2402    0.0000 N   0  0  0  0  0  0  0  0  0  0  0  0
    8.0965   -6.8779    0.0000 N   0  0  0  0  0  0  0  0  0  0  0  0
    9.1276   -6.0288    0.0000 C   0  0  0  0  0  0  0  0  0  0  0  0
    7.3686   -8.1517    0.0000 C   0  0  0  0  0  0  0  0  0  0  0  0
    8.0965   -4.3910    0.0000 C   0  0  0  0  0  0  0  0  0  0  0  0
    5.9129   -6.6353    0.0000 C   0  0  0  0  0  0  0  0  0  0  0  0
    5.6096   -6.0288    0.0000 C   0  0  0  0  0  0  0  0  0  0  0  0
    7.4293   -3.9664    0.0000 C   0  0  0  0  0  0  0  0  0  0  0  0
    9.3702   -4.8156    0.0000 C   0  0  0  0  0  0  0  0  0  0  0  0
    5.9129   -7.9697    0.0000 C   0  0  0  0  0  0  0  0  0  0  0  0
    5.9129   -4.0878    0.0000 C   0  0  0  0  0  0  0  0  0  0  0  0
    8.8850   -7.9697    0.0000 C   0  0  0  0  0  0  0  0  0  0  0  0
    5.4277   -4.8156    0.0000 C   0  0  1  0  0  0  0  0  0  0  0  0
    9.3702   -7.3025    0.0000 C   0  0  0  0  0  0  0  0  0  0  0  0
    8.8850   -4.0878    0.0000 C   0  0  0  0  0  0  0  0  0  0  0  0
    5.4277   -7.3025    0.0000 C   0  0  0  0  0  0  0  0  0  0  0  0
    9.1882   -3.3599    0.0000 C   0  0  0  0  0  0  0  0  0  0  0  0
   10.2194   -4.8156    0.0000 C   0  0  0  0  0  0  0  0  0  0  0  0
   10.6440   -5.4828    0.0000 C   0  0  0  0  0  0  0  0  0  0  0  0
   10.2194   -7.3025    0.0000 C   0  0  0  0  0  0  0  0  0  0  0  0
    9.3702   -8.6369    0.0000 C   0  0  0  0  0  0  0  0  0  0  0  0
    8.9456   -9.3648    0.0000 C   0  0  0  0  0  0  0  0  0  0  0  0
    9.3702  -10.0926    0.0000 C   0  0  0  0  0  0  0  0  0  0  0  0
    8.9456  -10.7598    0.0000 O   0  0  0  0  0  0  0  0  0  0  0  0
   10.1588  -10.0926    0.0000 O   0  0  0  0  0  0  0  0  0  0  0  0
    5.4277   -8.6369    0.0000 C   0  0  0  0  0  0  0  0  0  0  0  0
    5.8522   -9.3648    0.0000 C   0  0  0  0  0  0  0  0  0  0  0  0
    5.4277  -10.0926    0.0000 C   0  0  0  0  0  0  0  0  0  0  0  0
    5.8522  -10.7598    0.0000 O   0  0  0  0  0  0  0  0  0  0  0  0
    4.6392  -10.0926    0.0000 O   0  0  0  0  0  0  0  0  0  0  0  0
    4.5785   -7.3025    0.0000 C   0  0  0  0  0  0  0  0  0  0  0  0
    5.5489   -3.3599    0.0000 C   0  0  0  0  0  0  0  0  0  0  0  0
    4.6998   -3.2992    0.0000 C   0  0  0  0  0  0  0  0  0  0  0  0
    4.5785   -4.7550    0.0000 C   0  0  1  0  0  0  0  0  0  0  0  0
    4.2146   -3.9664    0.0000 C   0  0  0  0  0  0  0  0  0  0  0  0
    5.0031   -5.4828    0.0000 C   0  0  0  0  0  0  0  0  0  0  0  0
    4.0932   -5.4222    0.0000 C   0  0  0  0  0  0  0  0  0  0  0  0
    4.4572   -6.1500    0.0000 O   0  0  0  0  0  0  0  0  0  0  0  0
    3.3047   -5.3009    0.0000 O   0  0  0  0  0  0  0  0  0  0  0  0
    3.3654   -3.9058    0.0000 C   0  0  0  0  0  0  0  0  0  0  0  0
    2.9408   -4.5730    0.0000 O   0  0  0  0  0  0  0  0  0  0  0  0
    3.0621   -3.1173    0.0000 O   0  0  0  0  0  0  0  0  0  0  0  0
  3  1  1  0  0  0  0
 13  1  2  0  0  0  0
 14  2  2  0  0  0  0
  4  2  1  0  0  0  0
 11  3  2  0  0  0  0
 17  3  1  0  0  0  0
 12  4  2  0  0  0  0
 18  4  1  0  0  0  0
 11  5  1  0  0  0  0
 10  5  1  0  0  0  0
 22  5  2  0  0  0  0
 10  6  1  0  0  0  0
 12  6  1  0  0  0  0
 20  6  2  0  0  0  0
 16  7  2  0  0  0  0
  9  7  1  0  0  0  0
 19  7  1  0  0  0  0
  9  8  1  0  0  0  0
 15  8  2  0  0  0  0
 21  8  1  0  0  0  0
 16 13  1  0  0  0  0
 23 13  1  0  0  0  0
 15 14  1  0  0  0  0
 24 14  1  0  0  0  0
 23 17  2  0  0  0  0
 26 17  1  0  0  0  0
 24 18  2  0  0  0  0
 34 18  1  0  0  0  0
 40 19  2  0  0  0  0
 21 19  1  0  0  0  0
 22 20  1  0  0  0  0
 29 20  1  0  0  0  0
 42 21  1  0  0  0  0
 21 44  1  1  0  0  0
 28 22  1  0  0  0  0
 25 23  1  0  0  0  0
 39 24  1  0  0  0  0
 27 26  2  0  0  0  0
 30 29  1  0  0  0  0
 31 30  1  0  0  0  0
 32 31  2  0  0  0  0
 33 31  1  0  0  0  0
 35 34  1  0  0  0  0
 36 35  1  0  0  0  0
 37 36  2  0  0  0  0
 38 36  1  0  0  0  0
 41 40  1  0  0  0  0
 43 41  2  0  0  0  0
 43 42  1  0  0  0  0
 42 45  1  6  0  0  0
 48 43  1  0  0  0  0
 46 45  2  0  0  0  0
 47 45  1  0  0  0  0
 49 48  2  0  0  0  0
 50 48  1  0  0  0  0
M  END

>  <ACTIVITY>
5.00
$$$$
60781

  Mrv0541 05041708512D          

 50 55  0  0  1  0            999 V2000
    8.0965   -5.2402    0.0000 N   0  0  0  0  0  0  0  0  0  0  0  0
    6.7014   -6.8779    0.0000 N   0  0  0  0  0  0  0  0  0  0  0  0
    8.8850   -5.4828    0.0000 C   0  0  0  0  0  0  0  0  0  0  0  0
    6.7014   -7.7271    0.0000 C   0  0  0  0  0  0  0  0  0  0  0  0
    8.8850   -6.6353    0.0000 C   0  0  0  0  0  0  0  0  0  0  0  0
    8.0965   -7.7271    0.0000 C   0  0  0  0  0  0  0  0  0  0  0  0
    6.7014   -4.3910    0.0000 C   0  0  0  0  0  0  0  0  0  0  0  0
    5.9129   -5.4828    0.0000 C   0  0  0  0  0  0  0  0  0  0  0  0
    6.7014   -5.2402    0.0000 N   0  0  0  0  0  0  0  0  0  0  0  0
    8.0965   -6.8779    0.0000 N   0  0  0  0  0  0  0  0  0  0  0  0
    9.1276   -6.0288    0.0000 C   0  0  0  0  0  0  0  0  0  0  0  0
    7.3686   -8.1517    0.0000 C   0  0  0  0  0  0  0  0  0  0  0  0
    8.0965   -4.3910    0.0000 C   0  0  0  0  0  0  0  0  0  0  0  0
    5.9129   -6.6353    0.0000 C   0  0  0  0  0  0  0  0  0  0  0  0
    5.6096   -6.0288    0.0000 C   0  0  0  0  0  0  0  0  0  0  0  0
    7.4293   -3.9664    0.0000 C   0  0  0  0  0  0  0  0  0  0  0  0
    9.3702   -4.8156    0.0000 C   0  0  0  0  0  0  0  0  0  0  0  0
    5.9129   -7.9697    0.0000 C   0  0  0  0  0  0  0  0  0  0  0  0
    5.9129   -4.0878    0.0000 C   0  0  0  0  0  0  0  0  0  0  0  0
    8.8850   -7.9697    0.0000 C   0  0  0  0  0  0  0  0  0  0  0  0
    5.4277   -4.8156    0.0000 C   0  0  2  0  0  0  0  0  0  0  0  0
    9.3702   -7.3025    0.0000 C   0  0  0  0  0  0  0  0  0  0  0  0
    8.8850   -4.0878    0.0000 C   0  0  0  0  0  0  0  0  0  0  0  0
    5.4277   -7.3025    0.0000 C   0  0  0  0  0  0  0  0  0  0  0  0
    9.1882   -3.3599    0.0000 C   0  0  0  0  0  0  0  0  0  0  0  0
   10.2194   -4.8156    0.0000 C   0  0  0  0  0  0  0  0  0  0  0  0
   10.6440   -5.4828    0.0000 C   0  0  0  0  0  0  0  0  0  0  0  0
   10.2194   -7.3025    0.0000 C   0  0  0  0  0  0  0  0  0  0  0  0
    9.3702   -8.6369    0.0000 C   0  0  0  0  0  0  0  0  0  0  0  0
    8.9456   -9.3648    0.0000 C   0  0  0  0  0  0  0  0  0  0  0  0
    9.3702  -10.0926    0.0000 C   0  0  0  0  0  0  0  0  0  0  0  0
    8.9456  -10.7598    0.0000 O   0  0  0  0  0  0  0  0  0  0  0  0
   10.1588  -10.0926    0.0000 O   0  0  0  0  0  0  0  0  0  0  0  0
    5.4277   -8.6369    0.0000 C   0  0  0  0  0  0  0  0  0  0  0  0
    5.8522   -9.3648    0.0000 C   0  0  0  0  0  0  0  0  0  0  0  0
    5.4277  -10.0926    0.0000 C   0  0  0  0  0  0  0  0  0  0  0  0
    5.8522  -10.7598    0.0000 O   0  0  0  0  0  0  0  0  0  0  0  0
    4.6392  -10.0926    0.0000 O   0  0  0  0  0  0  0  0  0  0  0  0
    4.5785   -7.3025    0.0000 C   0  0  0  0  0  0  0  0  0  0  0  0
    5.5489   -3.3599    0.0000 C   0  0  0  0  0  0  0  0  0  0  0  0
    4.6998   -3.2992    0.0000 C   0  0  0  0  0  0  0  0  0  0  0  0
    4.5785   -4.7550    0.0000 C   0  0  2  0  0  0  0  0  0  0  0  0
    4.2146   -3.9664    0.0000 C   0  0  0  0  0  0  0  0  0  0  0  0
    5.0031   -5.4828    0.0000 C   0  0  0  0  0  0  0  0  0  0  0  0
    4.0932   -5.4222    0.0000 C   0  0  0  0  0  0  0  0  0  0  0  0
    4.4572   -6.1500    0.0000 O   0  0  0  0  0  0  0  0  0  0  0  0
    3.3047   -5.3009    0.0000 O   0  0  0  0  0  0  0  0  0  0  0  0
    3.3654   -3.9058    0.0000 C   0  0  0  0  0  0  0  0  0  0  0  0
    2.9408   -4.5730    0.0000 O   0  0  0  0  0  0  0  0  0  0  0  0
    3.0621   -3.1173    0.0000 O   0  0  0  0  0  0  0  0  0  0  0  0
  3  1  1  0  0  0  0
 13  1  2  0  0  0  0
 14  2  2  0  0  0  0
  4  2  1  0  0  0  0
 11  3  2  0  0  0  0
 17  3  1  0  0  0  0
 12  4  2  0  0  0  0
 18  4  1  0  0  0  0
 11  5  1  0  0  0  0
 10  5  1  0  0  0  0
 22  5  2  0  0  0  0
 10  6  1  0  0  0  0
 12  6  1  0  0  0  0
 20  6  2  0  0  0  0
 16  7  2  0  0  0  0
  9  7  1  0  0  0  0
 19  7  1  0  0  0  0
  9  8  1  0  0  0  0
 15  8  2  0  0  0  0
 21  8  1  0  0  0  0
 16 13  1  0  0  0  0
 23 13  1  0  0  0  0
 15 14  1  0  0  0  0
 24 14  1  0  0  0  0
 23 17  2  0  0  0  0
 26 17  1  0  0  0  0
 24 18  2  0  0  0  0
 34 18  1  0  0  0  0
 40 19  2  0  0  0  0
 21 19  1  0  0  0  0
 22 20  1  0  0  0  0
 29 20  1  0  0  0  0
 42 21  1  0  0  0  0
 21 44  1  6  0  0  0
 28 22  1  0  0  0  0
 25 23  1  0  0  0  0
 39 24  1  0  0  0  0
 27 26  2  0  0  0  0
 30 29  1  0  0  0  0
 31 30  1  0  0  0  0
 32 31  2  0  0  0  0
 33 31  1  0  0  0  0
 35 34  1  0  0  0  0
 36 35  1  0  0  0  0
 37 36  2  0  0  0  0
 38 36  1  0  0  0  0
 41 40  1  0  0  0  0
 43 41  2  0  0  0  0
 43 42  1  0  0  0  0
 42 45  1  1  0  0  0
 48 43  1  0  0  0  0
 46 45  2  0  0  0  0
 47 45  1  0  0  0  0
 49 48  2  0  0  0  0
 50 48  1  0  0  0  0
M  END

>  <ACTIVITY>
5.00
$$$$
65085

  Mrv0541 05041708512D          

 38 40  0  0  1  0            999 V2000
    7.6138   -8.8559    0.0000 O   0  0  0  0  0  0  0  0  0  0  0  0
    8.3151   -8.4434    0.0000 C   0  0  1  0  0  0  0  0  0  0  0  0
    9.0577   -8.8972    0.0000 C   0  0  1  0  0  0  0  0  0  0  0  0
    9.7588   -8.4847    0.0000 C   0  0  0  0  0  0  0  0  0  0  0  0
    9.7588   -7.6596    0.0000 C   0  0  1  0  0  0  0  0  0  0  0  0
    9.0577   -7.2471    0.0000 C   0  0  2  0  0  0  0  0  0  0  0  0
    8.3151   -7.6596    0.0000 C   0  0  2  0  0  0  0  0  0  0  0  0
    9.0577   -9.7222    0.0000 N   0  0  0  0  0  0  0  0  0  0  0  0
    7.6138   -7.2471    0.0000 O   0  0  0  0  0  0  0  0  0  0  0  0
   10.5014   -7.2471    0.0000 N   0  3  0  0  0  0  0  0  0  0  0  0
    9.0577   -6.4221    0.0000 O   0  0  0  0  0  0  0  0  0  0  0  0
    9.7588   -6.0096    0.0000 C   0  0  1  0  0  0  0  0  0  0  0  0
   10.4602   -6.4221    0.0000 O   0  0  0  0  0  0  0  0  0  0  0  0
   11.1615   -6.0096    0.0000 C   0  0  1  0  0  0  0  0  0  0  0  0
   11.1615   -5.1846    0.0000 C   0  0  2  0  0  0  0  0  0  0  0  0
   10.4602   -4.7721    0.0000 C   0  0  1  0  0  0  0  0  0  0  0  0
    9.7588   -5.1846    0.0000 C   0  0  1  0  0  0  0  0  0  0  0  0
   11.9039   -6.4221    0.0000 C   0  0  0  0  0  0  0  0  0  0  0  0
    9.0164   -4.7721    0.0000 N   0  3  0  0  0  0  0  0  0  0  0  0
   10.4602   -3.9469    0.0000 O   0  0  0  0  0  0  0  0  0  0  0  0
   11.8627   -4.7721    0.0000 O   0  0  0  0  0  0  0  0  0  0  0  0
   11.9039   -7.2471    0.0000 N   0  3  0  0  0  0  0  0  0  0  0  0
    5.7163   -8.2784    0.0000 C   0  0  1  0  0  0  0  0  0  0  0  0
    6.5413   -8.2784    0.0000 C   0  0  2  0  0  0  0  0  0  0  0  0
    6.7888   -7.4946    0.0000 C   0  0  1  0  0  0  0  0  0  0  0  0
    6.1288   -6.9997    0.0000 O   0  0  0  0  0  0  0  0  0  0  0  0
    5.4688   -7.4946    0.0000 C   0  0  2  0  0  0  0  0  0  0  0  0
    4.6851   -7.2471    0.0000 C   0  0  0  0  0  0  0  0  0  0  0  0
    4.0663   -7.7834    0.0000 O   0  0  0  0  0  0  0  0  0  0  0  0
    5.2213   -8.9384    0.0000 O   0  0  0  0  0  0  0  0  0  0  0  0
    7.0364   -8.9384    0.0000 O   0  0  0  0  0  0  0  0  0  0  0  0
    9.7778  -10.1392    0.0000 C   0  0  0  0  0  0  0  0  0  0  0  0
   10.4925   -9.7266    0.0000 C   0  0  2  0  0  0  0  0  0  0  0  0
   11.2071  -10.1392    0.0000 C   0  0  0  0  0  0  0  0  0  0  0  0
   11.9219   -9.7266    0.0000 C   0  0  0  0  0  0  0  0  0  0  0  0
   12.6366  -10.1392    0.0000 N   0  3  0  0  0  0  0  0  0  0  0  0
    9.7772  -10.9645    0.0000 O   0  0  0  0  0  0  0  0  0  0  0  0
   10.4925   -8.9015    0.0000 O   0  0  0  0  0  0  0  0  0  0  0  0
  2  1  1  6  0  0  0
  2  3  1  0  0  0  0
  3  4  1  0  0  0  0
  4  5  1  0  0  0  0
  5  6  1  0  0  0  0
  6  7  1  0  0  0  0
  2  7  1  0  0  0  0
  3  8  1  1  0  0  0
  7  9  1  1  0  0  0
  5 10  1  1  0  0  0
  6 11  1  6  0  0  0
 12 11  1  6  0  0  0
 12 13  1  0  0  0  0
 13 14  1  0  0  0  0
 14 15  1  0  0  0  0
 15 16  1  0  0  0  0
 16 17  1  0  0  0  0
 12 17  1  0  0  0  0
 14 18  1  1  0  0  0
 17 19  1  6  0  0  0
 16 20  1  1  0  0  0
 15 21  1  6  0  0  0
 18 22  1  0  0  0  0
 23 24  1  0  0  0  0
 24 25  1  0  0  0  0
 25 26  1  0  0  0  0
 26 27  1  0  0  0  0
 23 27  1  0  0  0  0
 27 28  1  1  0  0  0
 28 29  1  0  0  0  0
 23 30  1  6  0  0  0
 24 31  1  6  0  0  0
 25  9  1  1  0  0  0
  8 32  1  0  0  0  0
 32 33  1  0  0  0  0
 33 34  1  0  0  0  0
 34 35  1  0  0  0  0
 35 36  1  0  0  0  0
 32 37  2  0  0  0  0
 33 38  1  1  0  0  0
M  CHG  4  10   1  19   1  22   1  36   1
M  END

>  <ACTIVITY>
5.00
$$$$
67146

  Mrv0541 05041708512D          

 21 24  0  0  1  0            999 V2000
    9.7895  -24.9935    0.0000 C   0  0  0  0  0  0  0  0  0  0  0  0
    9.7895  -25.8185    0.0000 C   0  0  0  0  0  0  0  0  0  0  0  0
    9.0749  -24.5810    0.0000 C   0  0  0  0  0  0  0  0  0  0  0  0
    9.0749  -26.2310    0.0000 C   0  0  0  0  0  0  0  0  0  0  0  0
    8.3605  -24.9935    0.0000 C   0  0  0  0  0  0  0  0  0  0  0  0
    8.3605  -25.8185    0.0000 C   0  0  0  0  0  0  0  0  0  0  0  0
   11.1087  -25.4060    0.0000 C   0  0  0  0  0  0  0  0  0  0  0  0
   10.5742  -26.0735    0.0000 N   0  0  0  0  0  0  0  0  0  0  0  0
   10.5039  -24.6307    0.0000 C   0  0  0  0  0  0  0  0  0  0  0  0
   10.5039  -23.7559    0.0000 C   0  0  0  0  0  0  0  0  0  0  0  0
    9.0749  -23.7560    0.0000 C   0  0  2  0  0  0  0  0  0  0  0  0
    9.7893  -23.3435    0.0000 C   0  0  2  0  0  0  0  0  0  0  0  0
    8.3605  -23.3436    0.0000 C   0  0  2  0  0  0  0  0  0  0  0  0
    8.3605  -22.5186    0.0000 C   0  0  2  0  0  0  0  0  0  0  0  0
    9.7893  -22.5185    0.0000 N   0  3  0  0  0  0  0  0  0  0  0  0
    9.0749  -22.1061    0.0000 C   0  0  0  0  0  0  0  0  0  0  0  0
    7.6460  -22.1061    0.0000 C   0  0  0  0  0  0  0  0  0  0  0  0
    7.6460  -23.7561    0.0000 O   0  0  0  0  0  0  0  0  0  0  0  0
    9.0750  -22.9310    0.0000 H   0  0  0  0  0  0  0  0  0  0  0  0
    9.7906  -24.1636    0.0000 H   0  0  0  0  0  0  0  0  0  0  0  0
   10.3727  -21.9351    0.0000 C   0  0  0  0  0  0  0  0  0  0  0  0
  3  1  2  0  0  0  0
  4  2  2  0  0  0  0
  5  3  1  0  0  0  0
  6  4  1  0  0  0  0
  6  5  2  0  0  0  0
  9  1  1  0  0  0  0
  2  1  1  0  0  0  0
  7  9  2  0  0  0  0
  8  2  1  0  0  0  0
  8  7  1  0  0  0  0
 10  9  1  0  0  0  0
 11  3  1  0  0  0  0
 12 10  1  0  0  0  0
 13 11  1  0  0  0  0
 12 11  1  0  0  0  0
 14 13  1  0  0  0  0
 15 12  1  0  0  0  0
 16 14  1  0  0  0  0
 16 15  1  0  0  0  0
 14 17  1  1  0  0  0
 13 18  1  1  0  0  0
 11 19  1  6  0  0  0
 12 20  1  1  0  0  0
 15 21  1  0  0  0  0
M  CHG  1  15   1
M  END

>  <ACTIVITY>
5.00
$$$$
75963

  Mrv0541 05041708512D          

101110  0  0  1  0            999 V2000
    0.0000    0.8250    0.0000 C   0  0  0  0  0  0  0  0  0  0  0  0
    0.7145    0.4125    0.0000 C   0  0  0  0  0  0  0  0  0  0  0  0
   -0.7145    0.4125    0.0000 C   0  0  0  0  0  0  0  0  0  0  0  0
    0.0000   -0.8250    0.0000 C   0  0  0  0  0  0  0  0  0  0  0  0
   -0.7145   -0.4125    0.0000 C   0  0  0  0  0  0  0  0  0  0  0  0
    0.7145   -0.4125    0.0000 C   0  0  0  0  0  0  0  0  0  0  0  0
    1.4290    0.8250    0.0000 O   0  0  0  0  0  0  0  0  0  0  0  0
   -1.4289    0.8250    0.0000 O   0  0  0  0  0  0  0  0  0  0  0  0
   -4.2867   -0.8249    0.0000 C   0  0  1  0  0  0  0  0  0  0  0  0
    4.2867   -0.8250    0.0000 C   0  0  1  0  0  0  0  0  0  0  0  0
   -3.5722   -0.4124    0.0000 C   0  0  0  0  0  0  0  0  0  0  0  0
    3.5723   -0.4125    0.0000 C   0  0  0  0  0  0  0  0  0  0  0  0
   -2.1433    0.4126    0.0000 C   0  0  0  0  0  0  0  0  0  0  0  0
    2.1433    0.4125    0.0000 C   0  0  0  0  0  0  0  0  0  0  0  0
   -2.1434   -0.4124    0.0000 C   0  0  0  0  0  0  0  0  0  0  0  0
    2.8578    0.8249    0.0000 C   0  0  0  0  0  0  0  0  0  0  0  0
    3.5723    0.4124    0.0000 C   0  0  0  0  0  0  0  0  0  0  0  0
    2.8578   -0.8250    0.0000 C   0  0  0  0  0  0  0  0  0  0  0  0
   -3.5722    0.4126    0.0000 C   0  0  0  0  0  0  0  0  0  0  0  0
   -2.8578    0.8251    0.0000 C   0  0  0  0  0  0  0  0  0  0  0  0
    2.1433   -0.4125    0.0000 C   0  0  0  0  0  0  0  0  0  0  0  0
    2.8578    1.6499    0.0000 Cl  0  0  0  0  0  0  0  0  0  0  0  0
   -5.0012   -0.4124    0.0000 O   0  0  0  0  0  0  0  0  0  0  0  0
   -1.4289   -0.8249    0.0000 Cl  0  0  0  0  0  0  0  0  0  0  0  0
    5.0011   -0.4126    0.0000 O   0  0  0  0  0  0  0  0  0  0  0  0
   -0.7143    2.8874    0.0000 C   0  0  1  0  0  0  0  0  0  0  0  0
   -0.7144    2.0625    0.0000 C   0  0  1  0  0  0  0  0  0  0  0  0
   -1.4288    3.2999    0.0000 C   0  0  2  0  0  0  0  0  0  0  0  0
   -1.4288    1.6500    0.0000 O   0  0  0  0  0  0  0  0  0  0  0  0
   -2.1433    2.8875    0.0000 C   0  0  1  0  0  0  0  0  0  0  0  0
   -2.1433    2.0625    0.0000 C   0  0  1  0  0  0  0  0  0  0  0  0
    0.0000    3.2999    0.0000 O   0  0  0  0  0  0  0  0  0  0  0  0
   -1.4288    4.1249    0.0000 O   0  0  0  0  0  0  0  0  0  0  0  0
   -2.8578    3.3000    0.0000 O   0  0  0  0  0  0  0  0  0  0  0  0
    0.0000    1.6500    0.0000 O   0  0  0  0  0  0  0  0  0  0  0  0
   -2.8578    1.6500    0.0000 C   0  0  0  0  0  0  0  0  0  0  0  0
   -3.5722    2.0625    0.0000 O   0  0  0  0  0  0  0  0  0  0  0  0
   -2.8578   -0.8249    0.0000 C   0  0  0  0  0  0  0  0  0  0  0  0
    4.2867   -2.4750    0.0000 C   0  0  2  0  0  0  0  0  0  0  0  0
    0.7144   -2.8874    0.0000 N   0  0  0  0  0  0  0  0  0  0  0  0
    3.5722   -2.8874    0.0000 C   0  0  0  0  0  0  0  0  0  0  0  0
   -0.7144   -2.8874    0.0000 C   0  0  0  0  0  0  0  0  0  0  0  0
    2.8578   -2.4749    0.0000 N   0  0  0  0  0  0  0  0  0  0  0  0
   -0.0001   -2.4749    0.0000 C   0  0  1  0  0  0  0  0  0  0  0  0
    1.4289   -2.4749    0.0000 C   0  0  0  0  0  0  0  0  0  0  0  0
    2.1433   -2.8874    0.0000 C   0  0  2  0  0  0  0  0  0  0  0  0
    3.5722   -3.7124    0.0000 O   0  0  0  0  0  0  0  0  0  0  0  0
   -0.7145   -3.7123    0.0000 O   0  0  0  0  0  0  0  0  0  0  0  0
    1.4289   -1.6499    0.0000 O   0  0  0  0  0  0  0  0  0  0  0  0
    2.1433   -3.7124    0.0000 C   0  0  0  0  0  0  0  0  0  0  0  0
    1.4289   -4.1249    0.0000 C   0  0  0  0  0  0  0  0  0  0  0  0
    0.7144   -3.7124    0.0000 N   0  0  0  0  0  0  0  0  0  0  0  0
    1.4289   -4.9498    0.0000 O   0  0  0  0  0  0  0  0  0  0  0  0
    5.0011   -2.8875    0.0000 N   0  0  0  0  0  0  0  0  0  0  0  0
    5.7156   -2.4750    0.0000 C   0  0  0  0  0  0  0  0  0  0  0  0
    6.4300   -2.8875    0.0000 C   0  0  1  0  0  0  0  0  0  0  0  0
    5.7156   -1.6500    0.0000 O   0  0  0  0  0  0  0  0  0  0  0  0
    7.1444   -2.4750    0.0000 C   0  0  0  0  0  0  0  0  0  0  0  0
    6.4300   -3.7125    0.0000 N   0  3  0  0  0  0  0  0  0  0  0  0
    7.8589   -2.8875    0.0000 C   0  0  0  0  0  0  0  0  0  0  0  0
    7.1444   -4.1250    0.0000 C   0  0  0  0  0  0  0  0  0  0  0  0
    7.8589   -3.7125    0.0000 C   0  0  0  0  0  0  0  0  0  0  0  0
    8.5734   -2.4751    0.0000 C   0  0  0  0  0  0  0  0  0  0  0  0
   -4.2867   -2.4748    0.0000 C   0  0  2  0  0  0  0  0  0  0  0  0
   -1.4289   -2.4749    0.0000 N   0  0  0  0  0  0  0  0  0  0  0  0
   -2.1434   -2.8873    0.0000 C   0  0  1  0  0  0  0  0  0  0  0  0
   -5.7156   -2.4748    0.0000 O   0  0  0  0  0  0  0  0  0  0  0  0
   -3.5723   -2.8873    0.0000 N   0  0  0  0  0  0  0  0  0  0  0  0
   -2.8579   -2.4748    0.0000 C   0  0  0  0  0  0  0  0  0  0  0  0
   -2.8579   -1.6499    0.0000 O   0  0  0  0  0  0  0  0  0  0  0  0
   -6.4302   -3.7123    0.0000 C   0  0  0  0  0  0  0  0  0  0  0  0
   -6.4302   -2.8873    0.0000 O   0  0  0  0  0  0  0  0  0  0  0  0
   -7.1446   -4.1249    0.0000 O   0  5  0  0  0  0  0  0  0  0  0  0
   -5.7157   -4.1248    0.0000 C   0  0  1  0  0  0  0  0  0  0  0  0
   -5.0012   -3.7123    0.0000 N   0  0  0  0  0  0  0  0  0  0  0  0
   -5.0012   -2.8873    0.0000 C   0  0  0  0  0  0  0  0  0  0  0  0
   -2.8692   -5.3741    0.0000 C   0  0  0  0  0  0  0  0  0  0  0  0
   -2.1548   -5.7866    0.0000 C   0  0  0  0  0  0  0  0  0  0  0  0
   -2.1547   -4.1367    0.0000 C   0  0  0  0  0  0  0  0  0  0  0  0
   -2.8692   -4.5492    0.0000 C   0  0  0  0  0  0  0  0  0  0  0  0
   -1.4403   -5.3742    0.0000 C   0  0  0  0  0  0  0  0  0  0  0  0
   -1.4403   -4.5492    0.0000 C   0  0  0  0  0  0  0  0  0  0  0  0
   -2.1548   -6.6117    0.0000 O   0  0  0  0  0  0  0  0  0  0  0  0
   -5.7157   -4.9498    0.0000 C   0  0  0  0  0  0  0  0  0  0  0  0
   -6.4301   -5.3623    0.0000 C   0  0  0  0  0  0  0  0  0  0  0  0
   -5.7157   -6.5998    0.0000 C   0  0  0  0  0  0  0  0  0  0  0  0
   -5.0012   -5.3623    0.0000 C   0  0  0  0  0  0  0  0  0  0  0  0
   -6.4301   -6.1873    0.0000 C   0  0  0  0  0  0  0  0  0  0  0  0
   -7.1446   -6.5998    0.0000 O   0  0  0  0  0  0  0  0  0  0  0  0
   -5.0012   -6.1873    0.0000 C   0  0  0  0  0  0  0  0  0  0  0  0
   -4.2867   -6.5998    0.0000 O   0  0  0  0  0  0  0  0  0  0  0  0
   -5.8262   -0.4124    0.0000 C   0  0  2  0  0  0  0  0  0  0  0  0
   -6.2387    0.3021    0.0000 O   0  0  0  0  0  0  0  0  0  0  0  0
   -7.0637    0.3021    0.0000 C   0  0  2  0  0  0  0  0  0  0  0  0
   -7.4762   -0.4124    0.0000 C   0  0  1  0  0  0  0  0  0  0  0  0
   -7.0637   -1.1269    0.0000 C   0  0  1  0  0  0  0  0  0  0  0  0
   -6.2387   -1.1269    0.0000 C   0  0  0  0  0  0  0  0  0  0  0  0
   -7.4762    1.0165    0.0000 C   0  0  0  0  0  0  0  0  0  0  0  0
   -8.3012   -0.4124    0.0000 O   0  0  0  0  0  0  0  0  0  0  0  0
   -7.7782   -1.5394    0.0000 C   0  0  0  0  0  0  0  0  0  0  0  0
   -7.0637   -1.9519    0.0000 N   0  3  0  0  0  0  0  0  0  0  0  0
 35  1  1  0  0  0  0
  2  1  2  0  0  0  0
  7  2  1  0  0  0  0
  3  1  1  0  0  0  0
  8  3  1  0  0  0  0
  4 44  1  0  0  0  0
  5  4  1  0  0  0  0
  5  3  2  0  0  0  0
  6  2  1  0  0  0  0
  6  4  2  0  0  0  0
 14  7  1  0  0  0  0
 13  8  1  0  0  0  0
 11  9  1  0  0  0  0
  9 23  1  6  0  0  0
  9 64  1  0  0  0  0
 10 25  1  1  0  0  0
 12 10  1  0  0  0  0
 10 39  1  0  0  0  0
 38 11  2  0  0  0  0
 19 11  1  0  0  0  0
 18 12  2  0  0  0  0
 17 12  1  0  0  0  0
 20 13  1  0  0  0  0
 15 13  2  0  0  0  0
 16 14  1  0  0  0  0
 21 14  2  0  0  0  0
 38 15  1  0  0  0  0
 24 15  1  0  0  0  0
 17 16  2  0  0  0  0
 22 16  1  0  0  0  0
 21 18  1  0  0  0  0
 20 19  2  0  0  0  0
 27 26  1  0  0  0  0
 28 26  1  0  0  0  0
 26 32  1  1  0  0  0
 27 35  1  6  0  0  0
 29 27  1  0  0  0  0
 28 33  1  6  0  0  0
 30 28  1  0  0  0  0
 31 29  1  0  0  0  0
 31 30  1  0  0  0  0
 30 34  1  1  0  0  0
 31 36  1  6  0  0  0
 36 37  1  0  0  0  0
 41 39  1  0  0  0  0
 39 54  1  1  0  0  0
 42 65  1  0  0  0  0
 44 40  1  1  0  0  0
 45 40  1  0  0  0  0
 43 41  1  0  0  0  0
 47 41  2  0  0  0  0
 44 42  1  0  0  0  0
 48 42  2  0  0  0  0
 46 43  1  0  0  0  0
 46 45  1  0  0  0  0
 49 45  2  0  0  0  0
 46 50  1  1  0  0  0
 50 51  1  0  0  0  0
 51 53  2  0  0  0  0
 51 52  1  0  0  0  0
 55 54  1  0  0  0  0
 56 55  1  0  0  0  0
 57 55  2  0  0  0  0
 58 56  1  0  0  0  0
 56 59  1  1  0  0  0
 60 58  1  0  0  0  0
 61 59  1  0  0  0  0
 62 60  1  0  0  0  0
 63 60  1  0  0  0  0
 82 79  1  0  0  0  0
 66 79  1  0  0  0  0
 66 65  1  0  0  0  0
 64 68  1  6  0  0  0
 69 68  1  0  0  0  0
 66 69  1  6  0  0  0
 69 70  2  0  0  0  0
 71 72  2  0  0  0  0
 71 73  1  0  0  0  0
 74 71  1  1  0  0  0
 74 84  1  0  0  0  0
 74 75  1  0  0  0  0
 76 64  1  0  0  0  0
 67 76  2  0  0  0  0
 76 75  1  0  0  0  0
 78 77  2  0  0  0  0
 79 80  2  0  0  0  0
 80 77  1  0  0  0  0
 81 82  2  0  0  0  0
 81 78  1  0  0  0  0
 83 78  1  0  0  0  0
 84 85  2  0  0  0  0
 84 87  1  0  0  0  0
 85 88  1  0  0  0  0
 88 86  2  0  0  0  0
 86 90  1  0  0  0  0
 90 87  2  0  0  0  0
 88 89  1  0  0  0  0
 90 91  1  0  0  0  0
 87 77  1  0  0  0  0
 92 23  1  1  0  0  0
 97 92  1  0  0  0  0
 93 92  1  0  0  0  0
 93 94  1  0  0  0  0
 94 95  1  0  0  0  0
 95 96  1  0  0  0  0
 96 97  1  0  0  0  0
 94 98  1  6  0  0  0
 95 99  1  1  0  0  0
 96100  1  1  0  0  0
 96101  1  6  0  0  0
M  CHG  3  59   1  73  -1 101   1
M  END

>  <ACTIVITY>
5.00
$$$$
84321

  Mrv0541 05041708512D          

 22 21  0  0  0  0            999 V2000
    7.4446   -9.0946    0.0000 N   0  0  0  0  0  0  0  0  0  0  0  0
    8.1591   -9.5071    0.0000 C   0  0  0  0  0  0  0  0  0  0  0  0
    8.8736   -9.0946    0.0000 C   0  0  0  0  0  0  0  0  0  0  0  0
    9.5881   -9.5071    0.0000 C   0  0  0  0  0  0  0  0  0  0  0  0
   10.3025   -9.0946    0.0000 C   0  0  0  0  0  0  0  0  0  0  0  0
   11.0170   -9.5071    0.0000 N   0  0  0  0  0  0  0  0  0  0  0  0
   11.7315   -9.0946    0.0000 C   0  0  0  0  0  0  0  0  0  0  0  0
   12.4459   -9.5071    0.0000 C   0  0  1  0  0  0  0  0  0  0  0  0
   13.1604   -9.0946    0.0000 C   0  0  0  0  0  0  0  0  0  0  0  0
   13.8749   -9.5071    0.0000 N   0  0  0  0  0  0  0  0  0  0  0  0
   14.5894   -9.0946    0.0000 C   0  0  2  0  0  0  0  0  0  0  0  0
   15.3038   -9.5071    0.0000 C   0  0  0  0  0  0  0  0  0  0  0  0
   16.0183   -9.0946    0.0000 O   0  5  0  0  0  0  0  0  0  0  0  0
    8.1591  -10.3321    0.0000 O   0  0  0  0  0  0  0  0  0  0  0  0
   10.3025   -8.2696    0.0000 O   0  0  0  0  0  0  0  0  0  0  0  0
   12.4459  -10.3321    0.0000 N   0  3  0  0  0  0  0  0  0  0  0  0
   13.1604   -8.2696    0.0000 O   0  0  0  0  0  0  0  0  0  0  0  0
   15.3038  -10.3321    0.0000 O   0  0  0  0  0  0  0  0  0  0  0  0
   14.5894   -8.2696    0.0000 C   0  0  1  0  0  0  0  0  0  0  0  0
   13.8749   -7.8571    0.0000 C   0  0  0  0  0  0  0  0  0  0  0  0
   15.3038   -7.8571    0.0000 C   0  0  0  0  0  0  0  0  0  0  0  0
   15.3038   -7.0321    0.0000 C   0  0  0  0  0  0  0  0  0  0  0  0
  1  2  1  0  0  0  0
  2  3  1  0  0  0  0
  3  4  2  0  0  0  0
  4  5  1  0  0  0  0
  5  6  1  0  0  0  0
  6  7  1  0  0  0  0
  7  8  1  0  0  0  0
  8  9  1  0  0  0  0
  9 10  1  0  0  0  0
 11 10  1  1  0  0  0
 11 12  1  0  0  0  0
 12 13  1  0  0  0  0
  2 14  2  0  0  0  0
  5 15  2  0  0  0  0
  8 16  1  1  0  0  0
  9 17  2  0  0  0  0
 12 18  2  0  0  0  0
 11 19  1  0  0  0  0
 19 20  1  1  0  0  0
 19 21  1  0  0  0  0
 21 22  1  0  0  0  0
M  CHG  2  13  -1  16   1
M  END

>  <ACTIVITY>
5.00
$$$$
84590

  Mrv0541 05041708512D          

 27 30  0  0  1  0            999 V2000
    7.6446  -20.1708    0.0000 C   0  0  0  0  0  0  0  0  0  0  0  0
    7.6446  -20.9958    0.0000 C   0  0  0  0  0  0  0  0  0  0  0  0
    6.9302  -19.7583    0.0000 C   0  0  0  0  0  0  0  0  0  0  0  0
    6.9302  -21.4084    0.0000 C   0  0  0  0  0  0  0  0  0  0  0  0
    6.2157  -20.1708    0.0000 C   0  0  0  0  0  0  0  0  0  0  0  0
    6.2157  -20.9958    0.0000 C   0  0  0  0  0  0  0  0  0  0  0  0
    8.4293  -19.9159    0.0000 C   0  5  0  0  0  0  0  0  0  0  0  0
    8.9142  -20.5833    0.0000 C   0  0  2  0  0  0  0  0  0  0  0  0
    8.4293  -21.2508    0.0000 N   0  0  0  0  0  0  0  0  0  0  0  0
    9.6989  -20.8382    0.0000 C   0  0  2  0  0  0  0  0  0  0  0  0
    9.6989  -21.6633    0.0000 C   0  0  2  0  0  0  0  0  0  0  0  0
    8.9142  -21.9182    0.0000 C   0  0  0  0  0  0  0  0  0  0  0  0
    6.9302  -18.9333    0.0000 O   0  0  0  0  0  0  0  0  0  0  0  0
    6.9302  -22.2334    0.0000 O   0  0  0  0  0  0  0  0  0  0  0  0
    5.5012  -19.7583    0.0000 O   0  0  0  0  0  0  0  0  0  0  0  0
   10.4133  -21.2508    0.0000 N   0  0  0  0  0  0  0  0  0  0  0  0
    5.5012  -21.4084    0.0000 C   0  0  0  0  0  0  0  0  0  0  0  0
    9.3991  -19.9159    0.0000 O   0  0  0  0  0  0  0  0  0  0  0  0
    8.6842  -19.1312    0.0000 C   0  0  0  0  0  0  0  0  0  0  0  0
    8.1322  -18.5181    0.0000 O   0  0  0  0  0  0  0  0  0  0  0  0
    8.3871  -17.7335    0.0000 C   0  0  0  0  0  0  0  0  0  0  0  0
    9.1941  -17.5619    0.0000 N   0  0  0  0  0  0  0  0  0  0  0  0
    7.8351  -17.1204    0.0000 O   0  0  0  0  0  0  0  0  0  0  0  0
    9.9024  -20.2684    0.0000 H   0  0  0  0  0  0  0  0  0  0  0  0
    9.8788  -22.3275    0.0000 H   0  0  0  0  0  0  0  0  0  0  0  0
   11.2383  -21.2508    0.0000 C   0  0  0  0  0  0  0  0  0  0  0  0
    4.7867  -20.1708    0.0000 C   0  0  0  0  0  0  0  0  0  0  0  0
  3  1  1  0  0  0  0
  4  2  1  0  0  0  0
  5  3  1  0  0  0  0
  6  4  1  0  0  0  0
  6  5  2  0  0  0  0
  7  1  1  0  0  0  0
  2  1  2  0  0  0  0
  8  7  1  0  0  0  0
  9  2  1  0  0  0  0
 10  8  1  0  0  0  0
  9  8  1  0  0  0  0
 11 10  1  0  0  0  0
 12 11  1  0  0  0  0
 12  9  1  0  0  0  0
 13  3  2  0  0  0  0
 14  4  2  0  0  0  0
 15  5  1  0  0  0  0
 16 10  1  0  0  0  0
 11 16  1  0  0  0  0
 17  6  1  0  0  0  0
  8 18  1  6  0  0  0
  7 19  1  0  0  0  0
 20 19  1  0  0  0  0
 21 20  1  0  0  0  0
 22 21  1  0  0  0  0
 23 21  2  0  0  0  0
 10 24  1  6  0  0  0
 11 25  1  6  0  0  0
 16 26  1  0  0  0  0
 15 27  1  0  0  0  0
M  CHG  1   7  -1
M  END

>  <ACTIVITY>
5.00
$$$$
84952

  Mrv0541 05041708512D          

 26 29  0  0  1  0            999 V2000
    7.6446  -20.1708    0.0000 C   0  0  0  0  0  0  0  0  0  0  0  0
    7.6446  -20.9958    0.0000 C   0  0  0  0  0  0  0  0  0  0  0  0
    6.9302  -19.7583    0.0000 C   0  0  0  0  0  0  0  0  0  0  0  0
    6.9302  -21.4084    0.0000 C   0  0  0  0  0  0  0  0  0  0  0  0
    6.2157  -20.1708    0.0000 C   0  0  0  0  0  0  0  0  0  0  0  0
    6.2157  -20.9958    0.0000 C   0  0  0  0  0  0  0  0  0  0  0  0
    8.4293  -19.9159    0.0000 C   0  5  0  0  0  0  0  0  0  0  0  0
    8.9142  -20.5833    0.0000 C   0  0  2  0  0  0  0  0  0  0  0  0
    8.4293  -21.2508    0.0000 N   0  0  0  0  0  0  0  0  0  0  0  0
    9.6989  -20.8382    0.0000 C   0  0  2  0  0  0  0  0  0  0  0  0
    9.6989  -21.6633    0.0000 C   0  0  2  0  0  0  0  0  0  0  0  0
    8.9142  -21.9182    0.0000 C   0  0  0  0  0  0  0  0  0  0  0  0
    6.9302  -18.9333    0.0000 O   0  0  0  0  0  0  0  0  0  0  0  0
    6.9302  -22.2334    0.0000 O   0  0  0  0  0  0  0  0  0  0  0  0
    5.5012  -19.7583    0.0000 O   0  5  0  0  0  0  0  0  0  0  0  0
   10.4133  -21.2508    0.0000 N   0  0  0  0  0  0  0  0  0  0  0  0
    5.5012  -21.4084    0.0000 C   0  0  0  0  0  0  0  0  0  0  0  0
    9.3991  -19.9159    0.0000 O   0  0  0  0  0  0  0  0  0  0  0  0
    8.6842  -19.1312    0.0000 C   0  0  0  0  0  0  0  0  0  0  0  0
    8.1322  -18.5181    0.0000 O   0  0  0  0  0  0  0  0  0  0  0  0
    8.3871  -17.7335    0.0000 C   0  0  0  0  0  0  0  0  0  0  0  0
    9.1941  -17.5619    0.0000 N   0  0  0  0  0  0  0  0  0  0  0  0
    7.8351  -17.1204    0.0000 O   0  0  0  0  0  0  0  0  0  0  0  0
    9.9024  -20.2684    0.0000 H   0  0  0  0  0  0  0  0  0  0  0  0
    9.8788  -22.3275    0.0000 H   0  0  0  0  0  0  0  0  0  0  0  0
   11.2383  -21.2508    0.0000 C   0  0  0  0  0  0  0  0  0  0  0  0
  3  1  1  0  0  0  0
  4  2  1  0  0  0  0
  5  3  1  0  0  0  0
  6  4  1  0  0  0  0
  6  5  2  0  0  0  0
  7  1  1  0  0  0  0
  2  1  2  0  0  0  0
  8  7  1  0  0  0  0
  9  2  1  0  0  0  0
 10  8  1  0  0  0  0
  9  8  1  0  0  0  0
 11 10  1  0  0  0  0
 12 11  1  0  0  0  0
 12  9  1  0  0  0  0
 13  3  2  0  0  0  0
 14  4  2  0  0  0  0
 15  5  1  0  0  0  0
 16 10  1  0  0  0  0
 11 16  1  0  0  0  0
 17  6  1  0  0  0  0
  8 18  1  6  0  0  0
  7 19  1  0  0  0  0
 20 19  1  0  0  0  0
 21 20  1  0  0  0  0
 22 21  1  0  0  0  0
 23 21  2  0  0  0  0
 10 24  1  6  0  0  0
 11 25  1  6  0  0  0
 16 26  1  0  0  0  0
M  CHG  2   7  -1  15  -1
M  END

>  <ACTIVITY>
5.00
$$$$
90784

  Mrv0541 05041708512D          

 28 29  0  0  0  0            999 V2000
    4.5273   -3.5114    0.0000 C   0  0  0  0  0  0  0  0  0  0  0  0
    4.5273   -4.3365    0.0000 C   0  0  0  0  0  0  0  0  0  0  0  0
    5.2440   -4.7469    0.0000 C   0  0  0  0  0  0  0  0  0  0  0  0
    5.2440   -3.0968    0.0000 C   0  0  0  0  0  0  0  0  0  0  0  0
    5.9525   -3.5114    0.0000 C   0  0  0  0  0  0  0  0  0  0  0  0
    5.9490   -4.3365    0.0000 C   0  0  0  0  0  0  0  0  0  0  0  0
    6.6623   -4.7500    0.0000 N   0  3  0  0  0  0  0  0  0  0  0  0
    7.3792   -4.3425    0.0000 C   0  0  0  0  0  0  0  0  0  0  0  0
    7.3827   -3.5175    0.0000 C   0  0  0  0  0  0  0  0  0  0  0  0
    6.6693   -3.0998    0.0000 C   0  0  0  0  0  0  0  0  0  0  0  0
    6.6624   -2.2716    0.0000 C   0  0  0  0  0  0  0  0  0  0  0  0
    8.0887   -4.7511    0.0000 C   0  0  0  0  0  0  0  0  0  0  0  0
    6.6623   -5.5748    0.0000 O   0  5  0  0  0  0  0  0  0  0  0  0
    8.0971   -3.1050    0.0000 O   0  5  0  0  0  0  0  0  0  0  0  0
    7.3768   -1.8592    0.0000 C   0  0  0  0  0  0  0  0  0  0  0  0
    7.3767   -1.0341    0.0000 C   0  0  0  0  0  0  0  0  0  0  0  0
    8.0911   -0.6216    0.0000 C   0  0  0  0  0  0  0  0  0  0  0  0
    8.8056   -1.0338    0.0000 C   0  0  0  0  0  0  0  0  0  0  0  0
    9.5200   -0.6211    0.0000 C   0  0  0  0  0  0  0  0  0  0  0  0
   10.2346   -1.0335    0.0000 C   0  0  0  0  0  0  0  0  0  0  0  0
   10.9490   -0.6209    0.0000 C   0  0  0  0  0  0  0  0  0  0  0  0
   11.6635   -1.0331    0.0000 C   0  0  0  0  0  0  0  0  0  0  0  0
   12.3779   -0.6205    0.0000 C   0  0  0  0  0  0  0  0  0  0  0  0
   13.0925   -1.0328    0.0000 C   0  0  0  0  0  0  0  0  0  0  0  0
   13.8069   -0.6201    0.0000 C   0  0  0  0  0  0  0  0  0  0  0  0
   13.0927   -1.8577    0.0000 C   0  0  0  0  0  0  0  0  0  0  0  0
   10.2348   -1.8585    0.0000 C   0  0  0  0  0  0  0  0  0  0  0  0
    6.6623   -0.6219    0.0000 C   0  0  0  0  0  0  0  0  0  0  0  0
  3  6  1  0  0  0  0
  5  4  1  0  0  0  0
  4  1  2  0  0  0  0
  5  6  2  0  0  0  0
  6  7  1  0  0  0  0
  7  8  2  0  0  0  0
  8  9  1  0  0  0  0
  9 10  2  0  0  0  0
 10  5  1  0  0  0  0
 10 11  1  0  0  0  0
  8 12  1  0  0  0  0
  1  2  1  0  0  0  0
  2  3  2  0  0  0  0
  7 13  1  0  0  0  0
  9 14  1  0  0  0  0
 11 15  1  0  0  0  0
 15 16  2  0  0  0  0
 16 17  1  0  0  0  0
 17 18  1  0  0  0  0
 18 19  1  0  0  0  0
 19 20  2  0  0  0  0
 20 21  1  0  0  0  0
 21 22  1  0  0  0  0
 22 23  1  0  0  0  0
 23 24  2  0  0  0  0
 24 25  1  0  0  0  0
 24 26  1  0  0  0  0
 20 27  1  0  0  0  0
 16 28  1  0  0  0  0
M  CHG  3   7   1  13  -1  14  -1
M  END

>  <ACTIVITY>
5.00
$$$$
73239

  Mrv0541 05041708512D          

 21 22  0  0  1  0            999 V2000
   17.9584   -5.4356    0.0000 C   0  0  2  0  0  0  0  0  0  0  0  0
   18.7431   -5.1806    0.0000 O   0  0  0  0  0  0  0  0  0  0  0  0
   17.9584   -6.2606    0.0000 C   0  0  1  0  0  0  0  0  0  0  0  0
   19.2281   -5.8481    0.0000 C   0  0  0  0  0  0  0  0  0  0  0  0
   18.7432   -6.5156    0.0000 C   0  0  0  0  0  0  0  0  0  0  0  0
   17.1943   -4.8243    0.0000 C   0  0  0  0  0  0  0  0  0  0  0  0
   17.2440   -6.6731    0.0000 C   0  0  1  0  0  0  0  0  0  0  0  0
   16.5295   -6.2607    0.0000 C   0  0  0  0  0  0  0  0  0  0  0  0
   15.8151   -6.6732    0.0000 C   0  0  0  0  0  0  0  0  0  0  0  0
   17.2463   -7.4950    0.0000 O   0  0  0  0  0  0  0  0  0  0  0  0
   15.8149   -7.4950    0.0000 C   0  0  0  0  0  0  0  0  0  0  0  0
   16.1906   -4.5917    0.0000 C   0  0  0  0  0  0  0  0  0  0  0  0
   15.0472   -6.3718    0.0000 C   0  0  0  0  0  0  0  0  0  0  0  0
   14.8039   -5.5835    0.0000 C   0  0  0  0  0  0  0  0  0  0  0  0
   15.2686   -4.9018    0.0000 C   0  0  1  0  0  0  0  0  0  0  0  0
   16.2004   -3.7676    0.0000 C   0  0  0  0  0  0  0  0  0  0  0  0
   14.7702   -4.2443    0.0000 O   0  0  0  0  0  0  0  0  0  0  0  0
   20.0494   -5.8449    0.0000 O   0  0  0  0  0  0  0  0  0  0  0  0
   18.9982   -7.3002    0.0000 C   0  0  0  0  0  0  0  0  0  0  0  0
   17.9620   -4.6123    0.0000 H   0  0  0  0  0  0  0  0  0  0  0  0
   17.9620   -7.0874    0.0000 H   0  0  0  0  0  0  0  0  0  0  0  0
  2  1  1  0  0  0  0
  4  2  1  0  0  0  0
  5  3  1  0  0  0  0
  5  4  1  0  0  0  0
  6  1  1  0  0  0  0
  3  1  1  0  0  0  0
  7  3  1  0  0  0  0
  8  7  1  0  0  0  0
  9  8  2  0  0  0  0
 12  6  1  0  0  0  0
  7 10  1  6  0  0  0
  9 11  1  0  0  0  0
 13  9  1  0  0  0  0
 15 12  1  0  0  0  0
 14 13  1  0  0  0  0
 15 14  1  0  0  0  0
 12 16  2  0  0  0  0
 15 17  1  1  0  0  0
  4 18  2  0  0  0  0
  5 19  2  0  0  0  0
  1 20  1  1  0  0  0
  3 21  1  6  0  0  0
M  END

>  <ACTIVITY>
5.00
$$$$
2682

  Mrv0541 05041708512D          

 66 68  0  0  1  0            999 V2000
   17.7630   -4.0343    0.0000 C   0  0  1  0  0  0  0  0  0  0  0  0
   18.4811   -3.6174    0.0000 C   0  0  1  0  0  0  0  0  0  0  0  0
   17.0423   -3.6208    0.0000 O   0  0  0  0  0  0  0  0  0  0  0  0
   17.7630   -4.8579    0.0000 C   0  0  0  0  0  0  0  0  0  0  0  0
   18.4811   -2.7938    0.0000 C   0  0  2  0  0  0  0  0  0  0  0  0
   19.1982   -4.0309    0.0000 C   0  0  0  0  0  0  0  0  0  0  0  0
   17.0423   -2.7938    0.0000 C   0  0  1  0  0  0  0  0  0  0  0  0
   17.0492   -5.2714    0.0000 C   0  0  1  0  0  0  0  0  0  0  0  0
   17.7630   -2.3803    0.0000 C   0  0  0  0  0  0  0  0  0  0  0  0
   19.1948   -2.3769    0.0000 O   0  0  0  0  0  0  0  0  0  0  0  0
   19.1982   -4.8579    0.0000 O   0  0  0  0  0  0  0  0  0  0  0  0
   19.9120   -3.6174    0.0000 O   0  0  0  0  0  0  0  0  0  0  0  0
   16.3319   -2.3838    0.0000 C   0  0  0  0  0  0  0  0  0  0  0  0
   17.0388   -1.9667    0.0000 O   0  0  0  0  0  0  0  0  0  0  0  0
   17.0526   -6.0984    0.0000 O   0  0  0  0  0  0  0  0  0  0  0  0
   16.3388   -4.8648    0.0000 C   0  0  0  0  0  0  0  0  0  0  0  0
   15.6181   -2.7972    0.0000 C   0  0  2  0  0  0  0  0  0  0  0  0
   16.3388   -6.5154    0.0000 C   0  0  1  0  0  0  0  0  0  0  0  0
   15.6250   -5.2748    0.0000 C   0  0  0  0  0  0  0  0  0  0  0  0
   14.9002   -2.3872    0.0000 C   0  0  0  0  0  0  0  0  0  0  0  0
   15.6181   -3.6243    0.0000 O   0  0  0  0  0  0  0  0  0  0  0  0
   16.3423   -7.3465    0.0000 C   0  0  2  0  0  0  0  0  0  0  0  0
   15.6250   -6.1019    0.0000 O   0  0  0  0  0  0  0  0  0  0  0  0
   14.9111   -4.8724    0.0000 C   0  0  0  0  0  0  0  0  0  0  0  0
   14.1864   -2.8007    0.0000 C   0  0  2  0  0  0  0  0  0  0  0  0
   15.6285   -7.7602    0.0000 C   0  0  2  0  0  0  0  0  0  0  0  0
   17.0603   -7.7524    0.0000 O   0  0  0  0  0  0  0  0  0  0  0  0
   14.9111   -6.5154    0.0000 C   0  0  1  0  0  0  0  0  0  0  0  0
   14.1933   -5.2859    0.0000 C   0  0  0  0  0  0  0  0  0  0  0  0
   13.4727   -2.3907    0.0000 C   0  0  1  0  0  0  0  0  0  0  0  0
   14.1899   -3.6277    0.0000 O   0  0  0  0  0  0  0  0  0  0  0  0
   14.9111   -7.3465    0.0000 C   0  0  1  0  0  0  0  0  0  0  0  0
   15.6285   -8.5870    0.0000 N   0  0  0  0  0  0  0  0  0  0  0  0
   14.1899   -6.1095    0.0000 C   0  0  0  0  0  0  0  0  0  0  0  0
   13.4795   -4.8758    0.0000 C   0  0  0  0  0  0  0  0  0  0  0  0
   12.7623   -2.8083    0.0000 C   0  0  0  0  0  0  0  0  0  0  0  0
   13.4727   -1.5636    0.0000 O   0  0  0  0  0  0  0  0  0  0  0  0
   14.1933   -7.7635    0.0000 O   0  0  0  0  0  0  0  0  0  0  0  0
   12.7692   -5.2894    0.0000 C   0  0  0  0  0  0  0  0  0  0  0  0
   12.0442   -2.3981    0.0000 C   0  0  0  0  0  0  0  0  0  0  0  0
   12.0553   -4.8793    0.0000 C   0  0  0  0  0  0  0  0  0  0  0  0
   11.3304   -2.8118    0.0000 C   0  0  2  0  0  0  0  0  0  0  0  0
   11.3373   -5.2928    0.0000 C   0  0  0  0  0  0  0  0  0  0  0  0
   10.6166   -2.4017    0.0000 C   0  0  0  0  0  0  0  0  0  0  0  0
   11.3304   -3.6387    0.0000 O   0  0  0  0  0  0  0  0  0  0  0  0
   10.6235   -4.8827    0.0000 C   0  0  0  0  0  0  0  0  0  0  0  0
    9.9028   -2.8152    0.0000 C   0  0  2  0  0  0  0  0  0  0  0  0
    9.9097   -5.2963    0.0000 C   0  0  0  0  0  0  0  0  0  0  0  0
    9.1883   -2.4051    0.0000 C   0  0  0  0  0  0  0  0  0  0  0  0
    9.9063   -3.6422    0.0000 O   0  0  0  0  0  0  0  0  0  0  0  0
    9.1994   -4.8861    0.0000 C   0  0  0  0  0  0  0  0  0  0  0  0
    8.4745   -2.8187    0.0000 C   0  0  0  0  0  0  0  0  0  0  0  0
    8.4779   -5.2997    0.0000 C   0  0  0  0  0  0  0  0  0  0  0  0
    7.7607   -2.4086    0.0000 O   0  0  0  0  0  0  0  0  0  0  0  0
    8.4745   -3.6456    0.0000 O   0  0  0  0  0  0  0  0  0  0  0  0
    7.7641   -4.8896    0.0000 C   0  0  0  0  0  0  0  0  0  0  0  0
    7.0469   -2.8221    0.0000 C   0  0  2  0  0  0  0  0  0  0  0  0
    7.0504   -5.3032    0.0000 C   0  0  0  0  0  0  0  0  0  0  0  0
    7.0469   -3.6491    0.0000 C   0  0  1  0  0  0  0  0  0  0  0  0
    6.3290   -2.4086    0.0000 C   0  0  0  0  0  0  0  0  0  0  0  0
    6.3290   -4.8896    0.0000 C   0  0  1  0  0  0  0  0  0  0  0  0
    6.3290   -4.0627    0.0000 C   0  0  1  0  0  0  0  0  0  0  0  0
    7.7641   -4.0627    0.0000 C   0  0  0  0  0  0  0  0  0  0  0  0
    5.6201   -5.3032    0.0000 C   0  0  0  0  0  0  0  0  0  0  0  0
    5.6201   -3.6491    0.0000 O   0  0  0  0  0  0  0  0  0  0  0  0
   18.4719   -4.4452    0.0000 H   0  0  0  0  0  0  0  0  0  0  0  0
  1  2  1  0  0  0  0
  1  3  1  0  0  0  0
  1  4  1  0  0  0  0
  2  5  1  0  0  0  0
  2  6  1  1  0  0  0
  3  7  1  0  0  0  0
  4  8  1  0  0  0  0
  5  9  1  0  0  0  0
  5 10  1  6  0  0  0
  6 11  2  0  0  0  0
  6 12  1  0  0  0  0
  7 13  1  0  0  0  0
  7 14  1  1  0  0  0
  8 15  1  1  0  0  0
  8 16  1  0  0  0  0
 13 17  1  0  0  0  0
 18 15  1  1  0  0  0
 16 19  2  0  0  0  0
 17 20  1  0  0  0  0
 17 21  1  1  0  0  0
 18 22  1  0  0  0  0
 18 23  1  0  0  0  0
 19 24  1  0  0  0  0
 20 25  1  0  0  0  0
 22 26  1  0  0  0  0
 22 27  1  1  0  0  0
 23 28  1  0  0  0  0
 24 29  2  0  0  0  0
 25 30  1  0  0  0  0
 25 31  1  1  0  0  0
 26 32  1  0  0  0  0
 26 33  1  1  0  0  0
 28 34  1  1  0  0  0
 29 35  1  0  0  0  0
 30 36  1  0  0  0  0
 30 37  1  1  0  0  0
 32 38  1  6  0  0  0
 35 39  2  0  0  0  0
 36 40  1  0  0  0  0
 39 41  1  0  0  0  0
 40 42  1  0  0  0  0
 41 43  2  0  0  0  0
 42 44  1  0  0  0  0
 42 45  1  1  0  0  0
 43 46  1  0  0  0  0
 44 47  1  0  0  0  0
 46 48  2  0  0  0  0
 47 49  1  0  0  0  0
 47 50  1  1  0  0  0
 48 51  1  0  0  0  0
 49 52  1  0  0  0  0
 51 53  2  0  0  0  0
 52 54  1  0  0  0  0
 52 55  2  0  0  0  0
 53 56  1  0  0  0  0
 54 57  1  0  0  0  0
 56 58  2  0  0  0  0
 57 59  1  0  0  0  0
 57 60  1  6  0  0  0
 58 61  1  0  0  0  0
 59 62  1  0  0  0  0
 59 63  1  6  0  0  0
 61 64  1  6  0  0  0
 62 65  1  1  0  0  0
  7  9  1  0  0  0  0
 28 32  1  0  0  0  0
 61 62  1  0  0  0  0
  1 66  1  1  0  0  0
M  END

>  <ACTIVITY>
5.00
$$$$
87652

  Mrv0541 05041708512D          

 36 40  0  0  0  0            999 V2000
   13.0414   -4.8833    0.0000 C   0  0  0  0  0  0  0  0  0  0  0  0
   12.3269   -5.2956    0.0000 C   0  0  0  0  0  0  0  0  0  0  0  0
   13.0412   -4.0580    0.0000 C   0  0  0  0  0  0  0  0  0  0  0  0
   11.6125   -4.8830    0.0000 C   0  0  0  0  0  0  0  0  0  0  0  0
   12.3269   -3.6457    0.0000 C   0  0  0  0  0  0  0  0  0  0  0  0
   11.6125   -4.0580    0.0000 C   0  0  0  0  0  0  0  0  0  0  0  0
   13.7556   -3.6455    0.0000 N   0  3  0  0  0  0  0  0  0  0  0  0
   10.8980   -5.2956    0.0000 C   0  0  0  0  0  0  0  0  0  0  0  0
   10.1836   -4.8830    0.0000 C   0  0  0  0  0  0  0  0  0  0  0  0
    9.4691   -5.2956    0.0000 C   0  0  0  0  0  0  0  0  0  0  0  0
   10.1836   -4.0580    0.0000 C   0  0  0  0  0  0  0  0  0  0  0  0
    8.7546   -4.8830    0.0000 C   0  0  0  0  0  0  0  0  0  0  0  0
    9.4691   -3.6455    0.0000 C   0  0  0  0  0  0  0  0  0  0  0  0
    8.7546   -4.0580    0.0000 C   0  0  0  0  0  0  0  0  0  0  0  0
   10.8980   -6.1205    0.0000 C   0  0  0  0  0  0  0  0  0  0  0  0
   11.6125   -6.5331    0.0000 C   0  0  0  0  0  0  0  0  0  0  0  0
   10.1835   -6.5331    0.0000 C   0  0  0  0  0  0  0  0  0  0  0  0
   11.6123   -7.3581    0.0000 C   0  0  0  0  0  0  0  0  0  0  0  0
   10.1835   -7.3579    0.0000 C   0  0  0  0  0  0  0  0  0  0  0  0
   10.8980   -7.7706    0.0000 C   0  0  0  0  0  0  0  0  0  0  0  0
   13.7556   -2.8207    0.0000 C   0  0  0  0  0  0  0  0  0  0  0  0
   10.9005   -8.5997    0.0000 N   0  0  0  0  0  0  0  0  0  0  0  0
    8.0379   -3.6416    0.0000 N   0  0  0  0  0  0  0  0  0  0  0  0
    8.0416   -2.8133    0.0000 C   0  0  0  0  0  0  0  0  0  0  0  0
    7.3291   -2.3975    0.0000 C   0  0  0  0  0  0  0  0  0  0  0  0
    8.7579   -2.4038    0.0000 C   0  0  0  0  0  0  0  0  0  0  0  0
    7.3327   -1.5725    0.0000 C   0  0  0  0  0  0  0  0  0  0  0  0
    8.7615   -1.5789    0.0000 C   0  0  0  0  0  0  0  0  0  0  0  0
    8.0491   -1.1632    0.0000 C   0  0  0  0  0  0  0  0  0  0  0  0
   14.4680   -4.0656    0.0000 C   0  0  0  0  0  0  0  0  0  0  0  0
   10.1872   -9.0142    0.0000 C   0  0  0  0  0  0  0  0  0  0  0  0
   11.6161   -9.0099    0.0000 C   0  0  0  0  0  0  0  0  0  0  0  0
    9.4690   -6.1208    0.0000 C   0  0  0  0  0  0  0  0  0  0  0  0
    8.7544   -6.5331    0.0000 C   0  0  0  0  0  0  0  0  0  0  0  0
    8.0401   -5.2954    0.0000 C   0  0  0  0  0  0  0  0  0  0  0  0
    8.0399   -6.1204    0.0000 C   0  0  0  0  0  0  0  0  0  0  0  0
  2  1  2  0  0  0  0
  3  1  1  0  0  0  0
  4  2  1  0  0  0  0
  5  3  1  0  0  0  0
  6  4  1  0  0  0  0
  6  5  2  0  0  0  0
  3  7  2  0  0  0  0
  4  8  2  0  0  0  0
 10  9  1  0  0  0  0
 11  9  2  0  0  0  0
 13 11  1  0  0  0  0
 14 12  1  0  0  0  0
 14 13  2  0  0  0  0
  8  9  1  0  0  0  0
 16 15  1  0  0  0  0
 17 15  2  0  0  0  0
 18 16  2  0  0  0  0
 19 17  1  0  0  0  0
 20 18  1  0  0  0  0
 20 19  2  0  0  0  0
  8 15  1  0  0  0  0
 21  7  1  0  0  0  0
 20 22  1  0  0  0  0
 14 23  1  0  0  0  0
 23 24  1  0  0  0  0
 25 24  1  0  0  0  0
 26 24  2  0  0  0  0
 27 25  2  0  0  0  0
 28 26  1  0  0  0  0
 29 27  1  0  0  0  0
 29 28  2  0  0  0  0
  7 30  1  0  0  0  0
 22 31  1  0  0  0  0
 22 32  1  0  0  0  0
 33 10  1  0  0  0  0
 12 10  2  0  0  0  0
 34 33  2  0  0  0  0
 35 12  1  0  0  0  0
 36 34  1  0  0  0  0
 36 35  2  0  0  0  0
M  CHG  1   7   1
M  END

>  <ACTIVITY>
5.00
$$$$
60775

  Mrv0541 05041708512D          

 53 58  0  0  1  0            999 V2000
    8.0965   -5.2402    0.0000 N   0  0  0  0  0  0  0  0  0  0  0  0
    6.7014   -6.8779    0.0000 N   0  0  0  0  0  0  0  0  0  0  0  0
    8.8850   -5.4828    0.0000 C   0  0  0  0  0  0  0  0  0  0  0  0
    6.7014   -7.7271    0.0000 C   0  0  0  0  0  0  0  0  0  0  0  0
    8.8850   -6.6353    0.0000 C   0  0  0  0  0  0  0  0  0  0  0  0
    8.0965   -7.7271    0.0000 C   0  0  0  0  0  0  0  0  0  0  0  0
    6.7014   -4.3910    0.0000 C   0  0  0  0  0  0  0  0  0  0  0  0
    5.9129   -5.4828    0.0000 C   0  0  0  0  0  0  0  0  0  0  0  0
    6.7014   -5.2402    0.0000 N   0  0  0  0  0  0  0  0  0  0  0  0
    8.0965   -6.8779    0.0000 N   0  0  0  0  0  0  0  0  0  0  0  0
    9.1276   -6.0288    0.0000 C   0  0  0  0  0  0  0  0  0  0  0  0
    7.3686   -8.1517    0.0000 C   0  0  0  0  0  0  0  0  0  0  0  0
    8.0965   -4.3910    0.0000 C   0  0  0  0  0  0  0  0  0  0  0  0
    5.9129   -6.6353    0.0000 C   0  0  0  0  0  0  0  0  0  0  0  0
    5.6096   -6.0288    0.0000 C   0  0  0  0  0  0  0  0  0  0  0  0
    7.4293   -3.9664    0.0000 C   0  0  0  0  0  0  0  0  0  0  0  0
    9.3702   -4.8156    0.0000 C   0  0  0  0  0  0  0  0  0  0  0  0
    5.9129   -7.9697    0.0000 C   0  0  0  0  0  0  0  0  0  0  0  0
    5.9129   -4.0878    0.0000 C   0  0  0  0  0  0  0  0  0  0  0  0
    8.8850   -7.9697    0.0000 C   0  0  0  0  0  0  0  0  0  0  0  0
    5.4277   -4.8156    0.0000 C   0  0  1  0  0  0  0  0  0  0  0  0
    9.3702   -7.3025    0.0000 C   0  0  0  0  0  0  0  0  0  0  0  0
    8.8850   -4.0878    0.0000 C   0  0  0  0  0  0  0  0  0  0  0  0
    5.4277   -7.3025    0.0000 C   0  0  0  0  0  0  0  0  0  0  0  0
    9.1882   -3.3599    0.0000 C   0  0  0  0  0  0  0  0  0  0  0  0
   10.2194   -4.8156    0.0000 C   0  0  0  0  0  0  0  0  0  0  0  0
   10.6440   -5.4828    0.0000 C   0  0  0  0  0  0  0  0  0  0  0  0
   10.2194   -7.3025    0.0000 C   0  0  0  0  0  0  0  0  0  0  0  0
    9.3702   -8.6369    0.0000 C   0  0  0  0  0  0  0  0  0  0  0  0
    8.9456   -9.3648    0.0000 C   0  0  0  0  0  0  0  0  0  0  0  0
    9.3702  -10.0926    0.0000 C   0  0  0  0  0  0  0  0  0  0  0  0
    8.9456  -10.7598    0.0000 O   0  0  0  0  0  0  0  0  0  0  0  0
   10.1588  -10.0926    0.0000 O   0  0  0  0  0  0  0  0  0  0  0  0
    5.4277   -8.6369    0.0000 C   0  0  0  0  0  0  0  0  0  0  0  0
    5.8522   -9.3648    0.0000 C   0  0  0  0  0  0  0  0  0  0  0  0
    5.4277  -10.0926    0.0000 C   0  0  0  0  0  0  0  0  0  0  0  0
    5.8522  -10.7598    0.0000 O   0  0  0  0  0  0  0  0  0  0  0  0
    4.6392  -10.0926    0.0000 O   0  0  0  0  0  0  0  0  0  0  0  0
    4.5785   -7.3025    0.0000 C   0  0  0  0  0  0  0  0  0  0  0  0
    5.5489   -3.3599    0.0000 C   0  0  0  0  0  0  0  0  0  0  0  0
    4.6998   -3.2992    0.0000 C   0  0  0  0  0  0  0  0  0  0  0  0
    4.5785   -4.7550    0.0000 C   0  0  1  0  0  0  0  0  0  0  0  0
    4.2146   -3.9664    0.0000 C   0  0  0  0  0  0  0  0  0  0  0  0
    5.0031   -5.4828    0.0000 C   0  0  0  0  0  0  0  0  0  0  0  0
    4.0932   -5.4222    0.0000 C   0  0  0  0  0  0  0  0  0  0  0  0
    4.4572   -6.1500    0.0000 O   0  0  0  0  0  0  0  0  0  0  0  0
    3.3047   -5.3009    0.0000 O   0  0  0  0  0  0  0  0  0  0  0  0
    3.3654   -3.9058    0.0000 C   0  0  0  0  0  0  0  0  0  0  0  0
    2.9408   -4.5730    0.0000 O   0  0  0  0  0  0  0  0  0  0  0  0
    3.0621   -3.1173    0.0000 O   0  0  0  0  0  0  0  0  0  0  0  0
    3.5474   -2.4501    0.0000 C   0  0  0  0  0  0  0  0  0  0  0  0
    2.8195   -5.9681    0.0000 C   0  0  0  0  0  0  0  0  0  0  0  0
    4.2146   -9.3648    0.0000 C   0  0  0  0  0  0  0  0  0  0  0  0
  3  1  1  0  0  0  0
 13  1  2  0  0  0  0
 14  2  2  0  0  0  0
  4  2  1  0  0  0  0
 11  3  2  0  0  0  0
 17  3  1  0  0  0  0
 12  4  2  0  0  0  0
 18  4  1  0  0  0  0
 11  5  1  0  0  0  0
 10  5  1  0  0  0  0
 22  5  2  0  0  0  0
 10  6  1  0  0  0  0
 12  6  1  0  0  0  0
 20  6  2  0  0  0  0
 16  7  2  0  0  0  0
  9  7  1  0  0  0  0
 19  7  1  0  0  0  0
  9  8  1  0  0  0  0
 15  8  2  0  0  0  0
 21  8  1  0  0  0  0
 16 13  1  0  0  0  0
 23 13  1  0  0  0  0
 15 14  1  0  0  0  0
 24 14  1  0  0  0  0
 23 17  2  0  0  0  0
 26 17  1  0  0  0  0
 24 18  2  0  0  0  0
 34 18  1  0  0  0  0
 40 19  2  0  0  0  0
 21 19  1  0  0  0  0
 22 20  1  0  0  0  0
 29 20  1  0  0  0  0
 42 21  1  0  0  0  0
 21 44  1  1  0  0  0
 28 22  1  0  0  0  0
 25 23  1  0  0  0  0
 39 24  1  0  0  0  0
 27 26  2  0  0  0  0
 30 29  1  0  0  0  0
 31 30  1  0  0  0  0
 32 31  2  0  0  0  0
 33 31  1  0  0  0  0
 35 34  1  0  0  0  0
 36 35  1  0  0  0  0
 37 36  2  0  0  0  0
 38 36  1  0  0  0  0
 53 38  1  0  0  0  0
 41 40  1  0  0  0  0
 43 41  2  0  0  0  0
 43 42  1  0  0  0  0
 42 45  1  6  0  0  0
 48 43  1  0  0  0  0
 46 45  2  0  0  0  0
 47 45  1  0  0  0  0
 52 47  1  0  0  0  0
 49 48  2  0  0  0  0
 50 48  1  0  0  0  0
 51 50  1  0  0  0  0
M  END

>  <ACTIVITY>
5.00
$$$$
60776

  Mrv0541 05041708512D          

 53 58  0  0  1  0            999 V2000
    8.0965   -5.2402    0.0000 N   0  0  0  0  0  0  0  0  0  0  0  0
    6.7014   -6.8779    0.0000 N   0  0  0  0  0  0  0  0  0  0  0  0
    8.8850   -5.4828    0.0000 C   0  0  0  0  0  0  0  0  0  0  0  0
    6.7014   -7.7271    0.0000 C   0  0  0  0  0  0  0  0  0  0  0  0
    8.8850   -6.6353    0.0000 C   0  0  0  0  0  0  0  0  0  0  0  0
    8.0965   -7.7271    0.0000 C   0  0  0  0  0  0  0  0  0  0  0  0
    6.7014   -4.3910    0.0000 C   0  0  0  0  0  0  0  0  0  0  0  0
    5.9129   -5.4828    0.0000 C   0  0  0  0  0  0  0  0  0  0  0  0
    6.7014   -5.2402    0.0000 N   0  0  0  0  0  0  0  0  0  0  0  0
    8.0965   -6.8779    0.0000 N   0  0  0  0  0  0  0  0  0  0  0  0
    9.1276   -6.0288    0.0000 C   0  0  0  0  0  0  0  0  0  0  0  0
    7.3686   -8.1517    0.0000 C   0  0  0  0  0  0  0  0  0  0  0  0
    8.0965   -4.3910    0.0000 C   0  0  0  0  0  0  0  0  0  0  0  0
    5.9129   -6.6353    0.0000 C   0  0  0  0  0  0  0  0  0  0  0  0
    5.6096   -6.0288    0.0000 C   0  0  0  0  0  0  0  0  0  0  0  0
    7.4293   -3.9664    0.0000 C   0  0  0  0  0  0  0  0  0  0  0  0
    9.3702   -4.8156    0.0000 C   0  0  0  0  0  0  0  0  0  0  0  0
    5.9129   -7.9697    0.0000 C   0  0  0  0  0  0  0  0  0  0  0  0
    5.9129   -4.0878    0.0000 C   0  0  0  0  0  0  0  0  0  0  0  0
    8.8850   -7.9697    0.0000 C   0  0  0  0  0  0  0  0  0  0  0  0
    5.4277   -4.8156    0.0000 C   0  0  2  0  0  0  0  0  0  0  0  0
    9.3702   -7.3025    0.0000 C   0  0  0  0  0  0  0  0  0  0  0  0
    8.8850   -4.0878    0.0000 C   0  0  0  0  0  0  0  0  0  0  0  0
    5.4277   -7.3025    0.0000 C   0  0  0  0  0  0  0  0  0  0  0  0
    9.1882   -3.3599    0.0000 C   0  0  0  0  0  0  0  0  0  0  0  0
   10.2194   -4.8156    0.0000 C   0  0  0  0  0  0  0  0  0  0  0  0
   10.6440   -5.4828    0.0000 C   0  0  0  0  0  0  0  0  0  0  0  0
   10.2194   -7.3025    0.0000 C   0  0  0  0  0  0  0  0  0  0  0  0
    9.3702   -8.6369    0.0000 C   0  0  0  0  0  0  0  0  0  0  0  0
    8.9456   -9.3648    0.0000 C   0  0  0  0  0  0  0  0  0  0  0  0
    9.3702  -10.0926    0.0000 C   0  0  0  0  0  0  0  0  0  0  0  0
    8.9456  -10.7598    0.0000 O   0  0  0  0  0  0  0  0  0  0  0  0
   10.1588  -10.0926    0.0000 O   0  0  0  0  0  0  0  0  0  0  0  0
    5.4277   -8.6369    0.0000 C   0  0  0  0  0  0  0  0  0  0  0  0
    5.8522   -9.3648    0.0000 C   0  0  0  0  0  0  0  0  0  0  0  0
    5.4277  -10.0926    0.0000 C   0  0  0  0  0  0  0  0  0  0  0  0
    5.8522  -10.7598    0.0000 O   0  0  0  0  0  0  0  0  0  0  0  0
    4.6392  -10.0926    0.0000 O   0  0  0  0  0  0  0  0  0  0  0  0
    4.5785   -7.3025    0.0000 C   0  0  0  0  0  0  0  0  0  0  0  0
    5.5489   -3.3599    0.0000 C   0  0  0  0  0  0  0  0  0  0  0  0
    4.6998   -3.2992    0.0000 C   0  0  0  0  0  0  0  0  0  0  0  0
    4.5785   -4.7550    0.0000 C   0  0  2  0  0  0  0  0  0  0  0  0
    4.2146   -3.9664    0.0000 C   0  0  0  0  0  0  0  0  0  0  0  0
    5.0031   -5.4828    0.0000 C   0  0  0  0  0  0  0  0  0  0  0  0
    4.0932   -5.4222    0.0000 C   0  0  0  0  0  0  0  0  0  0  0  0
    4.4572   -6.1500    0.0000 O   0  0  0  0  0  0  0  0  0  0  0  0
    3.3047   -5.3009    0.0000 O   0  0  0  0  0  0  0  0  0  0  0  0
    3.3654   -3.9058    0.0000 C   0  0  0  0  0  0  0  0  0  0  0  0
    2.9408   -4.5730    0.0000 O   0  0  0  0  0  0  0  0  0  0  0  0
    3.0621   -3.1173    0.0000 O   0  0  0  0  0  0  0  0  0  0  0  0
    3.5474   -2.4501    0.0000 C   0  0  0  0  0  0  0  0  0  0  0  0
    2.8195   -5.9681    0.0000 C   0  0  0  0  0  0  0  0  0  0  0  0
    4.2146   -9.3648    0.0000 C   0  0  0  0  0  0  0  0  0  0  0  0
  3  1  1  0  0  0  0
 13  1  2  0  0  0  0
 14  2  2  0  0  0  0
  4  2  1  0  0  0  0
 11  3  2  0  0  0  0
 17  3  1  0  0  0  0
 12  4  2  0  0  0  0
 18  4  1  0  0  0  0
 11  5  1  0  0  0  0
 10  5  1  0  0  0  0
 22  5  2  0  0  0  0
 10  6  1  0  0  0  0
 12  6  1  0  0  0  0
 20  6  2  0  0  0  0
 16  7  2  0  0  0  0
  9  7  1  0  0  0  0
 19  7  1  0  0  0  0
  9  8  1  0  0  0  0
 15  8  2  0  0  0  0
 21  8  1  0  0  0  0
 16 13  1  0  0  0  0
 23 13  1  0  0  0  0
 15 14  1  0  0  0  0
 24 14  1  0  0  0  0
 23 17  2  0  0  0  0
 26 17  1  0  0  0  0
 24 18  2  0  0  0  0
 34 18  1  0  0  0  0
 40 19  2  0  0  0  0
 21 19  1  0  0  0  0
 22 20  1  0  0  0  0
 29 20  1  0  0  0  0
 42 21  1  0  0  0  0
 21 44  1  6  0  0  0
 28 22  1  0  0  0  0
 25 23  1  0  0  0  0
 39 24  1  0  0  0  0
 27 26  2  0  0  0  0
 30 29  1  0  0  0  0
 31 30  1  0  0  0  0
 32 31  2  0  0  0  0
 33 31  1  0  0  0  0
 35 34  1  0  0  0  0
 36 35  1  0  0  0  0
 37 36  2  0  0  0  0
 38 36  1  0  0  0  0
 53 38  1  0  0  0  0
 41 40  1  0  0  0  0
 43 41  2  0  0  0  0
 43 42  1  0  0  0  0
 42 45  1  1  0  0  0
 48 43  1  0  0  0  0
 46 45  2  0  0  0  0
 47 45  1  0  0  0  0
 52 47  1  0  0  0  0
 49 48  2  0  0  0  0
 50 48  1  0  0  0  0
 51 50  1  0  0  0  0
M  END

>  <ACTIVITY>
5.00
$$$$
60778

  Mrv0541 05041708512D          

 53 58  0  0  1  0            999 V2000
   18.4685   -5.2402    0.0000 N   0  0  0  0  0  0  0  0  0  0  0  0
   17.0734   -6.8779    0.0000 N   0  0  0  0  0  0  0  0  0  0  0  0
   19.3177   -5.4828    0.0000 C   0  0  0  0  0  0  0  0  0  0  0  0
   17.0734   -7.7271    0.0000 C   0  0  0  0  0  0  0  0  0  0  0  0
   19.3177   -6.6353    0.0000 C   0  0  0  0  0  0  0  0  0  0  0  0
   18.4685   -7.7271    0.0000 C   0  0  0  0  0  0  0  0  0  0  0  0
   17.0734   -4.3910    0.0000 C   0  0  0  0  0  0  0  0  0  0  0  0
   16.2849   -5.4828    0.0000 C   0  0  0  0  0  0  0  0  0  0  0  0
   17.0734   -5.2402    0.0000 N   0  0  0  0  0  0  0  0  0  0  0  0
   18.4685   -6.8779    0.0000 N   0  0  0  0  0  0  0  0  0  0  0  0
   19.5603   -6.0288    0.0000 C   0  0  0  0  0  0  0  0  0  0  0  0
   17.8013   -8.1517    0.0000 C   0  0  0  0  0  0  0  0  0  0  0  0
   18.4685   -4.3910    0.0000 C   0  0  0  0  0  0  0  0  0  0  0  0
   16.2849   -6.6353    0.0000 C   0  0  0  0  0  0  0  0  0  0  0  0
   15.9816   -6.0288    0.0000 C   0  0  0  0  0  0  0  0  0  0  0  0
   17.8013   -3.9664    0.0000 C   0  0  0  0  0  0  0  0  0  0  0  0
   19.8029   -4.8156    0.0000 C   0  0  0  0  0  0  0  0  0  0  0  0
   16.2849   -7.9697    0.0000 C   0  0  0  0  0  0  0  0  0  0  0  0
   16.2849   -4.0878    0.0000 C   0  0  0  0  0  0  0  0  0  0  0  0
   19.3177   -7.9697    0.0000 C   0  0  0  0  0  0  0  0  0  0  0  0
   15.7996   -4.8156    0.0000 C   0  0  1  0  0  0  0  0  0  0  0  0
   19.8029   -7.3025    0.0000 C   0  0  0  0  0  0  0  0  0  0  0  0
   19.3177   -4.0878    0.0000 C   0  0  0  0  0  0  0  0  0  0  0  0
   15.7996   -7.3025    0.0000 C   0  0  0  0  0  0  0  0  0  0  0  0
   19.5603   -3.3599    0.0000 C   0  0  0  0  0  0  0  0  0  0  0  0
   20.5914   -4.8156    0.0000 C   0  0  0  0  0  0  0  0  0  0  0  0
   21.0160   -5.4828    0.0000 C   0  0  0  0  0  0  0  0  0  0  0  0
   20.5914   -7.3025    0.0000 C   0  0  0  0  0  0  0  0  0  0  0  0
   19.7423   -8.6369    0.0000 C   0  0  0  0  0  0  0  0  0  0  0  0
   19.3177   -9.3648    0.0000 C   0  0  0  0  0  0  0  0  0  0  0  0
   19.7423  -10.0926    0.0000 C   0  0  0  0  0  0  0  0  0  0  0  0
   19.3177  -10.7598    0.0000 O   0  0  0  0  0  0  0  0  0  0  0  0
   20.5914  -10.0926    0.0000 O   0  0  0  0  0  0  0  0  0  0  0  0
   15.7996   -8.6369    0.0000 C   0  0  0  0  0  0  0  0  0  0  0  0
   16.2242   -9.3648    0.0000 C   0  0  0  0  0  0  0  0  0  0  0  0
   15.7996  -10.0926    0.0000 C   0  0  0  0  0  0  0  0  0  0  0  0
   16.2242  -10.7598    0.0000 O   0  0  0  0  0  0  0  0  0  0  0  0
   15.0112  -10.0926    0.0000 O   0  0  0  0  0  0  0  0  0  0  0  0
   15.0112   -7.3025    0.0000 C   0  0  0  0  0  0  0  0  0  0  0  0
   15.9210   -3.3599    0.0000 C   0  0  0  0  0  0  0  0  0  0  0  0
   15.0718   -3.2992    0.0000 C   0  0  0  0  0  0  0  0  0  0  0  0
   14.9505   -4.7550    0.0000 C   0  0  1  0  0  0  0  0  0  0  0  0
   14.5866   -3.9664    0.0000 C   0  0  0  0  0  0  0  0  0  0  0  0
   15.3751   -5.4828    0.0000 C   0  0  0  0  0  0  0  0  0  0  0  0
   14.4653   -5.4222    0.0000 C   0  0  0  0  0  0  0  0  0  0  0  0
   14.8292   -6.1500    0.0000 O   0  0  0  0  0  0  0  0  0  0  0  0
   13.6767   -5.3009    0.0000 O   0  0  0  0  0  0  0  0  0  0  0  0
   13.7981   -3.9058    0.0000 C   0  0  0  0  0  0  0  0  0  0  0  0
   13.3128   -4.5730    0.0000 O   0  0  0  0  0  0  0  0  0  0  0  0
   13.4341   -3.1173    0.0000 O   0  0  0  0  0  0  0  0  0  0  0  0
   13.9193   -2.4501    0.0000 C   0  0  0  0  0  0  0  0  0  0  0  0
   13.1915   -5.9681    0.0000 C   0  0  0  0  0  0  0  0  0  0  0  0
   20.9553   -9.3648    0.0000 C   0  0  0  0  0  0  0  0  0  0  0  0
  3  1  1  0  0  0  0
 13  1  2  0  0  0  0
 14  2  2  0  0  0  0
  4  2  1  0  0  0  0
 11  3  2  0  0  0  0
 17  3  1  0  0  0  0
 12  4  2  0  0  0  0
 18  4  1  0  0  0  0
 11  5  1  0  0  0  0
 10  5  1  0  0  0  0
 22  5  2  0  0  0  0
 10  6  1  0  0  0  0
 12  6  1  0  0  0  0
 20  6  2  0  0  0  0
 16  7  2  0  0  0  0
  9  7  1  0  0  0  0
 19  7  1  0  0  0  0
  9  8  1  0  0  0  0
 15  8  2  0  0  0  0
 21  8  1  0  0  0  0
 16 13  1  0  0  0  0
 23 13  1  0  0  0  0
 15 14  1  0  0  0  0
 24 14  1  0  0  0  0
 23 17  2  0  0  0  0
 26 17  1  0  0  0  0
 24 18  2  0  0  0  0
 34 18  1  0  0  0  0
 40 19  2  0  0  0  0
 21 19  1  0  0  0  0
 22 20  1  0  0  0  0
 29 20  1  0  0  0  0
 42 21  1  0  0  0  0
 21 44  1  1  0  0  0
 28 22  1  0  0  0  0
 25 23  1  0  0  0  0
 39 24  1  0  0  0  0
 27 26  2  0  0  0  0
 30 29  1  0  0  0  0
 31 30  1  0  0  0  0
 32 31  2  0  0  0  0
 33 31  1  0  0  0  0
 53 33  1  0  0  0  0
 35 34  1  0  0  0  0
 36 35  1  0  0  0  0
 37 36  2  0  0  0  0
 38 36  1  0  0  0  0
 41 40  1  0  0  0  0
 43 41  2  0  0  0  0
 43 42  1  0  0  0  0
 42 45  1  6  0  0  0
 48 43  1  0  0  0  0
 46 45  2  0  0  0  0
 47 45  1  0  0  0  0
 52 47  1  0  0  0  0
 49 48  2  0  0  0  0
 50 48  1  0  0  0  0
 51 50  1  0  0  0  0
M  END

>  <ACTIVITY>
5.00
$$$$
60779

  Mrv0541 05041708512D          

 53 58  0  0  1  0            999 V2000
   18.4685   -5.2402    0.0000 N   0  0  0  0  0  0  0  0  0  0  0  0
   17.0734   -6.8779    0.0000 N   0  0  0  0  0  0  0  0  0  0  0  0
   19.3177   -5.4828    0.0000 C   0  0  0  0  0  0  0  0  0  0  0  0
   17.0734   -7.7271    0.0000 C   0  0  0  0  0  0  0  0  0  0  0  0
   19.3177   -6.6353    0.0000 C   0  0  0  0  0  0  0  0  0  0  0  0
   18.4685   -7.7271    0.0000 C   0  0  0  0  0  0  0  0  0  0  0  0
   17.0734   -4.3910    0.0000 C   0  0  0  0  0  0  0  0  0  0  0  0
   16.2849   -5.4828    0.0000 C   0  0  0  0  0  0  0  0  0  0  0  0
   17.0734   -5.2402    0.0000 N   0  0  0  0  0  0  0  0  0  0  0  0
   18.4685   -6.8779    0.0000 N   0  0  0  0  0  0  0  0  0  0  0  0
   19.5603   -6.0288    0.0000 C   0  0  0  0  0  0  0  0  0  0  0  0
   17.8013   -8.1517    0.0000 C   0  0  0  0  0  0  0  0  0  0  0  0
   18.4685   -4.3910    0.0000 C   0  0  0  0  0  0  0  0  0  0  0  0
   16.2849   -6.6353    0.0000 C   0  0  0  0  0  0  0  0  0  0  0  0
   15.9816   -6.0288    0.0000 C   0  0  0  0  0  0  0  0  0  0  0  0
   17.8013   -3.9664    0.0000 C   0  0  0  0  0  0  0  0  0  0  0  0
   19.8029   -4.8156    0.0000 C   0  0  0  0  0  0  0  0  0  0  0  0
   16.2849   -7.9697    0.0000 C   0  0  0  0  0  0  0  0  0  0  0  0
   16.2849   -4.0878    0.0000 C   0  0  0  0  0  0  0  0  0  0  0  0
   19.3177   -7.9697    0.0000 C   0  0  0  0  0  0  0  0  0  0  0  0
   15.7996   -4.8156    0.0000 C   0  0  2  0  0  0  0  0  0  0  0  0
   19.8029   -7.3025    0.0000 C   0  0  0  0  0  0  0  0  0  0  0  0
   19.3177   -4.0878    0.0000 C   0  0  0  0  0  0  0  0  0  0  0  0
   15.7996   -7.3025    0.0000 C   0  0  0  0  0  0  0  0  0  0  0  0
   19.5603   -3.3599    0.0000 C   0  0  0  0  0  0  0  0  0  0  0  0
   20.5914   -4.8156    0.0000 C   0  0  0  0  0  0  0  0  0  0  0  0
   21.0160   -5.4828    0.0000 C   0  0  0  0  0  0  0  0  0  0  0  0
   20.5914   -7.3025    0.0000 C   0  0  0  0  0  0  0  0  0  0  0  0
   19.7423   -8.6369    0.0000 C   0  0  0  0  0  0  0  0  0  0  0  0
   19.3177   -9.3648    0.0000 C   0  0  0  0  0  0  0  0  0  0  0  0
   19.7423  -10.0926    0.0000 C   0  0  0  0  0  0  0  0  0  0  0  0
   19.3177  -10.7598    0.0000 O   0  0  0  0  0  0  0  0  0  0  0  0
   20.5914  -10.0926    0.0000 O   0  0  0  0  0  0  0  0  0  0  0  0
   15.7996   -8.6369    0.0000 C   0  0  0  0  0  0  0  0  0  0  0  0
   16.2242   -9.3648    0.0000 C   0  0  0  0  0  0  0  0  0  0  0  0
   15.7996  -10.0926    0.0000 C   0  0  0  0  0  0  0  0  0  0  0  0
   16.2242  -10.7598    0.0000 O   0  0  0  0  0  0  0  0  0  0  0  0
   15.0112  -10.0926    0.0000 O   0  0  0  0  0  0  0  0  0  0  0  0
   15.0112   -7.3025    0.0000 C   0  0  0  0  0  0  0  0  0  0  0  0
   15.9210   -3.3599    0.0000 C   0  0  0  0  0  0  0  0  0  0  0  0
   15.0718   -3.2992    0.0000 C   0  0  0  0  0  0  0  0  0  0  0  0
   14.9505   -4.7550    0.0000 C   0  0  2  0  0  0  0  0  0  0  0  0
   14.5866   -3.9664    0.0000 C   0  0  0  0  0  0  0  0  0  0  0  0
   15.3751   -5.4828    0.0000 C   0  0  0  0  0  0  0  0  0  0  0  0
   14.4653   -5.4222    0.0000 C   0  0  0  0  0  0  0  0  0  0  0  0
   14.8292   -6.1500    0.0000 O   0  0  0  0  0  0  0  0  0  0  0  0
   13.6767   -5.3009    0.0000 O   0  0  0  0  0  0  0  0  0  0  0  0
   13.7981   -3.9058    0.0000 C   0  0  0  0  0  0  0  0  0  0  0  0
   13.3128   -4.5730    0.0000 O   0  0  0  0  0  0  0  0  0  0  0  0
   13.4341   -3.1173    0.0000 O   0  0  0  0  0  0  0  0  0  0  0  0
   13.9193   -2.4501    0.0000 C   0  0  0  0  0  0  0  0  0  0  0  0
   13.1915   -5.9681    0.0000 C   0  0  0  0  0  0  0  0  0  0  0  0
   20.9553   -9.3648    0.0000 C   0  0  0  0  0  0  0  0  0  0  0  0
  3  1  1  0  0  0  0
 13  1  2  0  0  0  0
 14  2  2  0  0  0  0
  4  2  1  0  0  0  0
 11  3  2  0  0  0  0
 17  3  1  0  0  0  0
 12  4  2  0  0  0  0
 18  4  1  0  0  0  0
 11  5  1  0  0  0  0
 10  5  1  0  0  0  0
 22  5  2  0  0  0  0
 10  6  1  0  0  0  0
 12  6  1  0  0  0  0
 20  6  2  0  0  0  0
 16  7  2  0  0  0  0
  9  7  1  0  0  0  0
 19  7  1  0  0  0  0
  9  8  1  0  0  0  0
 15  8  2  0  0  0  0
 21  8  1  0  0  0  0
 16 13  1  0  0  0  0
 23 13  1  0  0  0  0
 15 14  1  0  0  0  0
 24 14  1  0  0  0  0
 23 17  2  0  0  0  0
 26 17  1  0  0  0  0
 24 18  2  0  0  0  0
 34 18  1  0  0  0  0
 40 19  2  0  0  0  0
 21 19  1  0  0  0  0
 22 20  1  0  0  0  0
 29 20  1  0  0  0  0
 42 21  1  0  0  0  0
 21 44  1  6  0  0  0
 28 22  1  0  0  0  0
 25 23  1  0  0  0  0
 39 24  1  0  0  0  0
 27 26  2  0  0  0  0
 30 29  1  0  0  0  0
 31 30  1  0  0  0  0
 32 31  2  0  0  0  0
 33 31  1  0  0  0  0
 53 33  1  0  0  0  0
 35 34  1  0  0  0  0
 36 35  1  0  0  0  0
 37 36  2  0  0  0  0
 38 36  1  0  0  0  0
 41 40  1  0  0  0  0
 43 41  2  0  0  0  0
 43 42  1  0  0  0  0
 42 45  1  1  0  0  0
 48 43  1  0  0  0  0
 46 45  2  0  0  0  0
 47 45  1  0  0  0  0
 52 47  1  0  0  0  0
 49 48  2  0  0  0  0
 50 48  1  0  0  0  0
 51 50  1  0  0  0  0
M  END

>  <ACTIVITY>
5.00
$$$$
59064

  Mrv0541 05041708512D          

 82 82  0  0  1  0            999 V2000
    6.6359   -4.7642    0.0000 C   0  0  0  0  0  0  0  0  0  0  0  0
    7.3516   -4.3566    0.0000 C   0  0  0  0  0  0  0  0  0  0  0  0
    8.0635   -4.7733    0.0000 N   0  0  0  0  0  0  0  0  0  0  0  0
    7.3565   -3.5316    0.0000 O   0  0  0  0  0  0  0  0  0  0  0  0
    8.7828   -4.3665    0.0000 C   0  0  2  0  0  0  0  0  0  0  0  0
    9.4936   -4.7854    0.0000 C   0  0  0  0  0  0  0  0  0  0  0  0
   10.2118   -4.3793    0.0000 N   0  0  0  0  0  0  0  0  0  0  0  0
    9.4863   -5.6103    0.0000 O   0  0  0  0  0  0  0  0  0  0  0  0
    8.7828   -3.5415    0.0000 C   0  0  0  0  0  0  0  0  0  0  0  0
    8.0684   -3.1290    0.0000 C   0  0  0  0  0  0  0  0  0  0  0  0
    8.0684   -2.3040    0.0000 N   0  0  0  0  0  0  0  0  0  0  0  0
   10.9311   -4.7861    0.0000 C   0  0  2  0  0  0  0  0  0  0  0  0
   11.6419   -4.3672    0.0000 C   0  0  0  0  0  0  0  0  0  0  0  0
   12.3602   -4.7733    0.0000 N   0  0  0  0  0  0  0  0  0  0  0  0
   11.6347   -3.5422    0.0000 O   0  0  0  0  0  0  0  0  0  0  0  0
   10.9311   -5.6111    0.0000 C   0  0  1  0  0  0  0  0  0  0  0  0
   10.2167   -6.0236    0.0000 C   0  0  0  0  0  0  0  0  0  0  0  0
   11.6455   -6.0236    0.0000 O   0  0  0  0  0  0  0  0  0  0  0  0
   13.0795   -4.3665    0.0000 C   0  0  2  0  0  0  0  0  0  0  0  0
   13.7900   -4.7854    0.0000 C   0  0  0  0  0  0  0  0  0  0  0  0
   14.5083   -4.3793    0.0000 N   0  0  0  0  0  0  0  0  0  0  0  0
   13.7828   -5.6103    0.0000 O   0  0  0  0  0  0  0  0  0  0  0  0
   13.0795   -3.5415    0.0000 C   0  0  0  0  0  0  0  0  0  0  0  0
   12.3648   -3.1290    0.0000 C   0  0  0  0  0  0  0  0  0  0  0  0
   12.3648   -2.3040    0.0000 N   0  0  0  0  0  0  0  0  0  0  0  0
   15.2276   -4.7861    0.0000 C   0  0  2  0  0  0  0  0  0  0  0  0
   15.9384   -4.3672    0.0000 C   0  0  0  0  0  0  0  0  0  0  0  0
   16.6564   -4.7733    0.0000 N   0  0  0  0  0  0  0  0  0  0  0  0
   15.9309   -3.5422    0.0000 O   0  0  0  0  0  0  0  0  0  0  0  0
   15.2276   -5.6111    0.0000 C   0  0  0  0  0  0  0  0  0  0  0  0
   17.3757   -4.3665    0.0000 C   0  0  2  0  0  0  0  0  0  0  0  0
   18.0865   -4.7854    0.0000 C   0  0  0  0  0  0  0  0  0  0  0  0
   18.0792   -5.6103    0.0000 N   0  0  0  0  0  0  0  0  0  0  0  0
   18.8047   -4.3793    0.0000 O   0  0  0  0  0  0  0  0  0  0  0  0
   17.3757   -3.5415    0.0000 C   0  0  0  0  0  0  0  0  0  0  0  0
   16.6613   -3.1290    0.0000 C   0  0  0  0  0  0  0  0  0  0  0  0
   16.6613   -2.3040    0.0000 N   0  0  0  0  0  0  0  0  0  0  0  0
   18.7836   -6.0425    0.0000 C   0  0  1  0  0  0  0  0  0  0  0  0
   18.7617   -6.8672    0.0000 C   0  0  0  0  0  0  0  0  0  0  0  0
   18.0362   -7.2604    0.0000 N   0  0  0  0  0  0  0  0  0  0  0  0
   19.4647   -7.2986    0.0000 O   0  0  0  0  0  0  0  0  0  0  0  0
   19.5052   -5.6428    0.0000 C   0  0  0  0  0  0  0  0  0  0  0  0
   20.2124   -6.0679    0.0000 C   0  0  0  0  0  0  0  0  0  0  0  0
   17.9996   -8.0861    0.0000 C   0  0  2  0  0  0  0  0  0  0  0  0
   17.2674   -8.4664    0.0000 C   0  0  0  0  0  0  0  0  0  0  0  0
   17.2308   -9.2906    0.0000 N   0  0  0  0  0  0  0  0  0  0  0  0
   16.5721   -8.0224    0.0000 O   0  0  0  0  0  0  0  0  0  0  0  0
   18.6988   -8.5237    0.0000 C   0  0  0  0  0  0  0  0  0  0  0  0
   18.6694   -9.3482    0.0000 C   0  0  0  0  0  0  0  0  0  0  0  0
   16.5043   -9.6844    0.0000 C   0  0  2  0  0  0  0  0  0  0  0  0
   15.8010   -9.2530    0.0000 C   0  0  0  0  0  0  0  0  0  0  0  0
   15.0757   -9.6462    0.0000 N   0  0  0  0  0  0  0  0  0  0  0  0
   15.8231   -8.4283    0.0000 O   0  0  0  0  0  0  0  0  0  0  0  0
   16.4896  -10.5093    0.0000 C   0  0  0  0  0  0  0  0  0  0  0  0
   17.1965  -10.9345    0.0000 C   0  0  0  0  0  0  0  0  0  0  0  0
   17.1818  -11.7592    0.0000 N   0  0  0  0  0  0  0  0  0  0  0  0
   14.3639   -9.2267    0.0000 C   0  0  2  0  0  0  0  0  0  0  0  0
   14.3711   -8.4017    0.0000 C   0  0  0  0  0  0  0  0  0  0  0  0
   13.6606   -7.9828    0.0000 N   0  0  0  0  0  0  0  0  0  0  0  0
   15.0894   -7.9956    0.0000 O   0  0  0  0  0  0  0  0  0  0  0  0
   13.6493   -9.6392    0.0000 C   0  0  0  0  0  0  0  0  0  0  0  0
   13.6493  -10.4642    0.0000 C   0  0  0  0  0  0  0  0  0  0  0  0
   12.9349  -10.8767    0.0000 N   0  0  0  0  0  0  0  0  0  0  0  0
   13.6531   -7.1565    0.0000 C   0  0  2  0  0  0  0  0  0  0  0  0
   14.3639   -6.7376    0.0000 C   0  0  0  0  0  0  0  0  0  0  0  0
   14.3564   -5.9127    0.0000 O   0  0  0  0  0  0  0  0  0  0  0  0
   15.0819   -7.1438    0.0000 N   0  0  0  0  0  0  0  0  0  0  0  0
   12.9315   -6.7568    0.0000 C   0  0  1  0  0  0  0  0  0  0  0  0
   12.2243   -7.1820    0.0000 C   0  0  0  0  0  0  0  0  0  0  0  0
   12.9168   -5.9319    0.0000 O   0  0  0  0  0  0  0  0  0  0  0  0
   15.9420   -6.0236    0.0000 C   0  0  0  0  0  0  0  0  0  0  0  0
    6.6360   -5.5892    0.0000 C   0  0  0  0  0  0  0  0  0  0  0  0
    7.3506   -6.0015    0.0000 C   0  0  0  0  0  0  0  0  0  0  0  0
    7.3508   -6.8265    0.0000 C   0  0  0  0  0  0  0  0  0  0  0  0
    8.0653   -7.2387    0.0000 C   0  0  1  0  0  0  0  0  0  0  0  0
    8.0655   -8.0637    0.0000 C   0  0  0  0  0  0  0  0  0  0  0  0
    8.7797   -6.8262    0.0000 C   0  0  0  0  0  0  0  0  0  0  0  0
    8.7801   -8.4762    0.0000 C   0  0  0  0  0  0  0  0  0  0  0  0
   20.1977   -6.8927    0.0000 C   0  0  0  0  0  0  0  0  0  0  0  0
   20.9340   -5.6681    0.0000 C   0  0  0  0  0  0  0  0  0  0  0  0
   17.9408   -9.7351    0.0000 C   0  0  0  0  0  0  0  0  0  0  0  0
   19.3688   -9.7859    0.0000 C   0  0  0  0  0  0  0  0  0  0  0  0
  1  2  1  0  0  0  0
  2  3  1  0  0  0  0
  2  4  2  0  0  0  0
  5  3  1  1  0  0  0
  5  6  1  0  0  0  0
  6  7  1  0  0  0  0
  6  8  2  0  0  0  0
  5  9  1  0  0  0  0
  9 10  1  0  0  0  0
 10 11  1  0  0  0  0
 12  7  1  6  0  0  0
 12 13  1  0  0  0  0
 13 14  1  0  0  0  0
 13 15  2  0  0  0  0
 12 16  1  0  0  0  0
 16 17  1  0  0  0  0
 16 18  1  6  0  0  0
 19 14  1  1  0  0  0
 19 20  1  0  0  0  0
 20 21  1  0  0  0  0
 20 22  2  0  0  0  0
 19 23  1  0  0  0  0
 23 24  1  0  0  0  0
 24 25  1  0  0  0  0
 26 21  1  6  0  0  0
 26 27  1  0  0  0  0
 27 28  1  0  0  0  0
 27 29  2  0  0  0  0
 26 30  1  0  0  0  0
 31 28  1  1  0  0  0
 31 32  1  0  0  0  0
 32 33  1  0  0  0  0
 32 34  2  0  0  0  0
 31 35  1  0  0  0  0
 35 36  1  0  0  0  0
 36 37  1  0  0  0  0
 38 33  1  6  0  0  0
 38 39  1  0  0  0  0
 39 40  1  0  0  0  0
 39 41  2  0  0  0  0
 38 42  1  0  0  0  0
 42 43  1  0  0  0  0
 44 40  1  1  0  0  0
 44 45  1  0  0  0  0
 45 46  1  0  0  0  0
 45 47  2  0  0  0  0
 44 48  1  0  0  0  0
 48 49  1  0  0  0  0
 50 46  1  1  0  0  0
 50 51  1  0  0  0  0
 51 52  1  0  0  0  0
 51 53  2  0  0  0  0
 50 54  1  0  0  0  0
 54 55  1  0  0  0  0
 55 56  1  0  0  0  0
 57 52  1  1  0  0  0
 57 58  1  0  0  0  0
 58 59  1  0  0  0  0
 58 60  2  0  0  0  0
 57 61  1  0  0  0  0
 61 62  1  0  0  0  0
 62 63  1  0  0  0  0
 64 59  1  1  0  0  0
 64 65  1  0  0  0  0
 65 66  2  0  0  0  0
 65 67  1  0  0  0  0
 64 68  1  0  0  0  0
 68 69  1  0  0  0  0
 68 70  1  1  0  0  0
 30 71  1  0  0  0  0
 71 67  1  0  0  0  0
  1 72  1  0  0  0  0
 72 73  1  0  0  0  0
 73 74  1  0  0  0  0
 74 75  1  0  0  0  0
 75 76  1  0  0  0  0
 75 77  1  6  0  0  0
 76 78  1  0  0  0  0
 43 79  1  0  0  0  0
 43 80  1  0  0  0  0
 49 81  1  0  0  0  0
 49 82  1  0  0  0  0
M  END

>  <ACTIVITY>
5.00
$$$$
83356

  Mrv0541 05041708512D          

 46 54  0  0  1  0            999 V2000
   13.1769   -4.3205    0.0000 C   0  0  0  0  0  0  0  0  0  0  0  0
   14.1161   -3.3605    0.0000 C   0  0  0  0  0  0  0  0  0  0  0  0
   14.8256   -2.9431    0.0000 C   0  0  0  0  0  0  0  0  0  0  0  0
   15.5562   -3.3605    0.0000 C   0  0  0  0  0  0  0  0  0  0  0  0
   16.4952   -4.3205    0.0000 C   0  0  0  0  0  0  0  0  0  0  0  0
   16.9127   -5.0301    0.0000 C   0  0  0  0  0  0  0  0  0  0  0  0
   16.4952   -5.7397    0.0000 C   0  0  0  0  0  0  0  0  0  0  0  0
   15.5562   -6.6998    0.0000 C   0  0  0  0  0  0  0  0  0  0  0  0
   14.1161   -6.6998    0.0000 C   0  0  0  0  0  0  0  0  0  0  0  0
   13.1769   -5.7397    0.0000 C   0  0  0  0  0  0  0  0  0  0  0  0
   12.7595   -5.0301    0.0000 C   0  0  0  0  0  0  0  0  0  0  0  0
   15.6813   -4.1744    0.0000 N   0  3  0  0  0  0  0  0  0  0  0  0
   15.6813   -5.8858    0.0000 N   0  0  0  0  0  0  0  0  0  0  0  0
   13.9908   -5.8858    0.0000 N   0  3  0  0  0  0  0  0  0  0  0  0
   12.8013   -3.5692    0.0000 C   0  0  0  0  0  0  0  0  0  0  0  0
   12.0044   -3.3557    0.0000 C   0  0  0  0  0  0  0  0  0  0  0  0
   16.2866   -2.9848    0.0000 C   0  0  0  0  0  0  0  0  0  0  0  0
   16.8918   -6.4910    0.0000 C   0  0  0  0  0  0  0  0  0  0  0  0
   17.6886   -6.7045    0.0000 C   0  0  0  0  0  0  0  0  0  0  0  0
   13.3857   -2.9848    0.0000 C   0  0  0  0  0  0  0  0  0  0  0  0
   13.1721   -2.1879    0.0000 C   0  0  0  0  0  0  0  0  0  0  0  0
   12.3752   -1.9744    0.0000 C   0  0  0  0  0  0  0  0  0  0  0  0
   16.8918   -3.5692    0.0000 C   0  0  0  0  0  0  0  0  0  0  0  0
   13.9908   -4.1744    0.0000 N   0  0  0  0  0  0  0  0  0  0  0  0
   14.8256   -5.0301    0.0000 Mg  0  6  0  0  0  0  0  0  0  0  0  0
   17.6886   -3.3557    0.0000 C   0  0  0  0  0  0  0  0  0  0  0  0
   18.2720   -3.9391    0.0000 C   0  0  0  0  0  0  0  0  0  0  0  0
   16.5001   -2.1879    0.0000 C   0  0  0  0  0  0  0  0  0  0  0  0
   14.8256   -7.1172    0.0000 C   0  0  0  0  0  0  0  0  0  0  0  0
   16.2866   -7.0754    0.0000 C   0  0  0  0  0  0  0  0  0  0  0  0
   16.0731   -7.9141    0.0000 C   0  0  0  0  0  0  0  0  0  0  0  0
   16.4856   -8.6286    0.0000 O   0  0  0  0  0  0  0  0  0  0  0  0
   15.0391   -7.9141    0.0000 C   0  5  0  0  0  0  0  0  0  0  0  0
   13.8016   -8.6286    0.0000 O   0  0  0  0  0  0  0  0  0  0  0  0
   14.6266   -8.6286    0.0000 C   0  0  0  0  0  0  0  0  0  0  0  0
   15.0391   -9.3430    0.0000 O   0  0  0  0  0  0  0  0  0  0  0  0
   15.8641   -9.3430    0.0000 C   0  0  0  0  0  0  0  0  0  0  0  0
   13.3857   -7.0754    0.0000 C   0  0  1  0  0  0  0  0  0  0  0  0
   13.3857   -7.9004    0.0000 C   0  0  0  0  0  0  0  0  0  0  0  0
   12.6711   -8.3129    0.0000 C   0  0  0  0  0  0  0  0  0  0  0  0
   12.6711   -9.1379    0.0000 C   0  0  0  0  0  0  0  0  0  0  0  0
   13.3857   -9.5504    0.0000 O   0  0  0  0  0  0  0  0  0  0  0  0
   11.9567   -9.5504    0.0000 O   0  5  0  0  0  0  0  0  0  0  0  0
   12.8013   -6.4910    0.0000 C   0  0  2  0  0  0  0  0  0  0  0  0
   12.0044   -6.7045    0.0000 C   0  0  0  0  0  0  0  0  0  0  0  0
   15.9167   -1.6045    0.0000 O   0  0  0  0  0  0  0  0  0  0  0  0
  1 24  1  0  0  0  0
 15  1  1  0  0  0  0
  1 11  2  0  0  0  0
  2  3  2  0  0  0  0
 24  2  1  0  0  0  0
 20  2  1  0  0  0  0
  3  4  1  0  0  0  0
  4 12  2  0  0  0  0
 17  4  1  0  0  0  0
  5  6  2  0  0  0  0
 12  5  1  0  0  0  0
 23  5  1  0  0  0  0
  6  7  1  0  0  0  0
  7 13  1  0  0  0  0
  7 18  2  0  0  0  0
  8 29  1  0  0  0  0
 30  8  2  0  0  0  0
 13  8  1  0  0  0  0
  9 29  2  0  0  0  0
 14  9  1  0  0  0  0
 38  9  1  0  0  0  0
 10 11  1  0  0  0  0
 14 10  2  0  0  0  0
 44 10  1  0  0  0  0
 25 13  1  0  0  0  0
 20 15  2  0  0  0  0
 15 16  1  0  0  0  0
 17 23  2  0  0  0  0
 17 28  1  0  0  0  0
 18 30  1  0  0  0  0
 18 19  1  0  0  0  0
 38 44  1  0  0  0  0
 20 21  1  0  0  0  0
 21 22  2  0  0  0  0
 23 26  1  0  0  0  0
 24 25  1  0  0  0  0
 26 27  1  0  0  0  0
 29 33  1  0  0  0  0
 30 31  1  0  0  0  0
 33 31  1  0  0  0  0
 31 32  2  0  0  0  0
 33 35  1  0  0  0  0
 35 34  2  0  0  0  0
 35 36  1  0  0  0  0
 36 37  1  0  0  0  0
 40 39  1  0  0  0  0
 38 39  1  1  0  0  0
 40 41  1  0  0  0  0
 41 43  1  0  0  0  0
 41 42  2  0  0  0  0
 44 45  1  6  0  0  0
 12 25  1  0  0  0  0
 14 25  1  0  0  0  0
 28 46  2  0  0  0  0
M  CHG  5  12   1  14   1  25  -2  33  -1  43  -1
M  END

>  <ACTIVITY>
5.00
$$$$
74612

  Mrv0541 05041708512D          

 25 25  0  0  1  0            999 V2000
    7.2287   -3.4042    0.0000 C   0  0  2  0  0  0  0  0  0  0  0  0
    7.9431   -3.8167    0.0000 C   0  0  2  0  0  0  0  0  0  0  0  0
    8.6575   -3.4042    0.0000 C   0  0  0  0  0  0  0  0  0  0  0  0
    9.3729   -3.8884    0.0000 O   0  0  0  0  0  0  0  0  0  0  0  0
    7.9431   -4.7415    0.0000 N   0  0  0  0  0  0  0  0  0  0  0  0
    7.2287   -2.5792    0.0000 O   0  0  0  0  0  0  0  0  0  0  0  0
   10.1846   -3.8817    0.0000 P   0  0  0  0  0  0  0  0  0  0  0  0
   10.1846   -3.0567    0.0000 O   0  0  0  0  0  0  0  0  0  0  0  0
   12.4386   -3.8817    0.0000 C   0  0  1  0  0  0  0  0  0  0  0  0
   11.7242   -4.2945    0.0000 C   0  0  1  0  0  0  0  0  0  0  0  0
   11.7242   -5.1195    0.0000 C   0  0  1  0  0  0  0  0  0  0  0  0
   12.4386   -5.5320    0.0000 C   0  0  1  0  0  0  0  0  0  0  0  0
   13.1532   -5.1195    0.0000 C   0  0  2  0  0  0  0  0  0  0  0  0
   13.1532   -4.2945    0.0000 C   0  0  2  0  0  0  0  0  0  0  0  0
   11.0098   -3.8817    0.0000 O   0  0  0  0  0  0  0  0  0  0  0  0
   12.4386   -3.0567    0.0000 O   0  0  0  0  0  0  0  0  0  0  0  0
   13.8676   -5.5320    0.0000 O   0  0  0  0  0  0  0  0  0  0  0  0
   13.8676   -3.8817    0.0000 O   0  0  0  0  0  0  0  0  0  0  0  0
   11.0098   -5.5320    0.0000 O   0  0  0  0  0  0  0  0  0  0  0  0
   12.4386   -6.3570    0.0000 O   0  0  0  0  0  0  0  0  0  0  0  0
    6.5143   -3.8168    0.0000 R#  0  0  0  0  0  0  0  0  0  0  0  0
    7.9431   -5.5665    0.0000 C   0  0  0  0  0  0  0  0  0  0  0  0
    7.2286   -5.9790    0.0000 R#  0  0  0  0  0  0  0  0  0  0  0  0
    8.6576   -5.9790    0.0000 O   0  0  0  0  0  0  0  0  0  0  0  0
    9.9711   -4.6786    0.0000 O   0  5  0  0  0  0  0  0  0  0  0  0
  1  2  1  0  0  0  0
  2  3  1  0  0  0  0
  3  4  1  0  0  0  0
  2  5  1  6  0  0  0
  1  6  1  1  0  0  0
  4  7  1  0  0  0  0
  7  8  2  0  0  0  0
  9 10  1  0  0  0  0
 10 11  1  0  0  0  0
 11 12  1  0  0  0  0
 12 13  1  0  0  0  0
 13 14  1  0  0  0  0
  9 14  1  0  0  0  0
 10 15  1  1  0  0  0
  7 15  1  0  0  0  0
  9 16  1  6  0  0  0
 13 17  1  6  0  0  0
 14 18  1  1  0  0  0
 11 19  1  1  0  0  0
 12 20  1  1  0  0  0
  1 21  1  0  0  0  0
  5 22  1  0  0  0  0
 22 23  1  0  0  0  0
 22 24  2  0  0  0  0
  7 25  1  0  0  0  0
M  CHG  1  25  -1
M  RGP  2  21   1  23   2
M  END

>  <ACTIVITY>
5.00
$$$$
74613

  Mrv0541 05041708512D          

 25 25  0  0  1  0            999 V2000
    7.2287   -3.4042    0.0000 C   0  0  2  0  0  0  0  0  0  0  0  0
    7.9431   -3.8167    0.0000 C   0  0  2  0  0  0  0  0  0  0  0  0
    8.6575   -3.4042    0.0000 C   0  0  0  0  0  0  0  0  0  0  0  0
    9.3729   -3.8884    0.0000 O   0  0  0  0  0  0  0  0  0  0  0  0
    7.9431   -4.7415    0.0000 N   0  0  0  0  0  0  0  0  0  0  0  0
    7.2287   -2.5792    0.0000 O   0  0  0  0  0  0  0  0  0  0  0  0
   10.1846   -3.8817    0.0000 P   0  0  0  0  0  0  0  0  0  0  0  0
   10.1846   -3.0567    0.0000 O   0  0  0  0  0  0  0  0  0  0  0  0
   12.4386   -3.8817    0.0000 C   0  0  1  0  0  0  0  0  0  0  0  0
   11.7242   -4.2945    0.0000 C   0  0  1  0  0  0  0  0  0  0  0  0
   11.7242   -5.1195    0.0000 C   0  0  1  0  0  0  0  0  0  0  0  0
   12.4386   -5.5320    0.0000 C   0  0  1  0  0  0  0  0  0  0  0  0
   13.1532   -5.1195    0.0000 C   0  0  2  0  0  0  0  0  0  0  0  0
   13.1532   -4.2945    0.0000 C   0  0  2  0  0  0  0  0  0  0  0  0
   11.0098   -3.8817    0.0000 O   0  0  0  0  0  0  0  0  0  0  0  0
   12.4386   -3.0567    0.0000 O   0  0  0  0  0  0  0  0  0  0  0  0
   13.8676   -5.5320    0.0000 O   0  0  0  0  0  0  0  0  0  0  0  0
   13.8676   -3.8817    0.0000 O   0  0  0  0  0  0  0  0  0  0  0  0
   11.0098   -5.5320    0.0000 O   0  0  0  0  0  0  0  0  0  0  0  0
   12.4386   -6.3570    0.0000 O   0  0  0  0  0  0  0  0  0  0  0  0
    6.5143   -3.8168    0.0000 R#  0  0  0  0  0  0  0  0  0  0  0  0
    7.9431   -5.5665    0.0000 C   0  0  0  0  0  0  0  0  0  0  0  0
    7.2286   -5.9790    0.0000 R#  0  0  0  0  0  0  0  0  0  0  0  0
    8.6576   -5.9790    0.0000 O   0  0  0  0  0  0  0  0  0  0  0  0
    9.9711   -4.6786    0.0000 O   0  5  0  0  0  0  0  0  0  0  0  0
  1  2  1  0  0  0  0
  2  3  1  0  0  0  0
  3  4  1  0  0  0  0
  2  5  1  6  0  0  0
  1  6  1  1  0  0  0
  4  7  1  0  0  0  0
  7  8  2  0  0  0  0
  9 10  1  0  0  0  0
 10 11  1  0  0  0  0
 11 12  1  0  0  0  0
 12 13  1  0  0  0  0
 13 14  1  0  0  0  0
  9 14  1  0  0  0  0
 10 15  1  1  0  0  0
  7 15  1  0  0  0  0
  9 16  1  6  0  0  0
 13 17  1  6  0  0  0
 14 18  1  1  0  0  0
 11 19  1  1  0  0  0
 12 20  1  1  0  0  0
  1 21  1  0  0  0  0
  5 22  1  0  0  0  0
 22 23  1  0  0  0  0
 22 24  2  0  0  0  0
  7 25  1  0  0  0  0
M  CHG  1  25  -1
M  RGP  2  21   1  23   2
M  END

>  <ACTIVITY>
5.00
$$$$
74614

  Mrv0541 05041708512D          

 25 25  0  0  1  0            999 V2000
    7.2287   -3.4042    0.0000 C   0  0  2  0  0  0  0  0  0  0  0  0
    7.9431   -3.8167    0.0000 C   0  0  2  0  0  0  0  0  0  0  0  0
    8.6575   -3.4042    0.0000 C   0  0  0  0  0  0  0  0  0  0  0  0
    9.3729   -3.8884    0.0000 O   0  0  0  0  0  0  0  0  0  0  0  0
    7.9431   -4.7415    0.0000 N   0  0  0  0  0  0  0  0  0  0  0  0
    7.2287   -2.5792    0.0000 O   0  0  0  0  0  0  0  0  0  0  0  0
   10.1846   -3.8817    0.0000 P   0  0  0  0  0  0  0  0  0  0  0  0
   10.1846   -3.0567    0.0000 O   0  0  0  0  0  0  0  0  0  0  0  0
   12.4386   -3.8817    0.0000 C   0  0  1  0  0  0  0  0  0  0  0  0
   11.7242   -4.2945    0.0000 C   0  0  1  0  0  0  0  0  0  0  0  0
   11.7242   -5.1195    0.0000 C   0  0  1  0  0  0  0  0  0  0  0  0
   12.4386   -5.5320    0.0000 C   0  0  1  0  0  0  0  0  0  0  0  0
   13.1532   -5.1195    0.0000 C   0  0  2  0  0  0  0  0  0  0  0  0
   13.1532   -4.2945    0.0000 C   0  0  2  0  0  0  0  0  0  0  0  0
   11.0098   -3.8817    0.0000 O   0  0  0  0  0  0  0  0  0  0  0  0
   12.4386   -3.0567    0.0000 O   0  0  0  0  0  0  0  0  0  0  0  0
   13.8676   -5.5320    0.0000 O   0  0  0  0  0  0  0  0  0  0  0  0
   13.8676   -3.8817    0.0000 O   0  0  0  0  0  0  0  0  0  0  0  0
   11.0098   -5.5320    0.0000 O   0  0  0  0  0  0  0  0  0  0  0  0
   12.4386   -6.3570    0.0000 O   0  0  0  0  0  0  0  0  0  0  0  0
    6.5143   -3.8168    0.0000 R#  0  0  0  0  0  0  0  0  0  0  0  0
    7.9431   -5.5665    0.0000 C   0  0  0  0  0  0  0  0  0  0  0  0
    7.2286   -5.9790    0.0000 R#  0  0  0  0  0  0  0  0  0  0  0  0
    8.6576   -5.9790    0.0000 O   0  0  0  0  0  0  0  0  0  0  0  0
    9.9711   -4.6786    0.0000 O   0  5  0  0  0  0  0  0  0  0  0  0
  1  2  1  0  0  0  0
  2  3  1  0  0  0  0
  3  4  1  0  0  0  0
  2  5  1  6  0  0  0
  1  6  1  1  0  0  0
  4  7  1  0  0  0  0
  7  8  2  0  0  0  0
  9 10  1  0  0  0  0
 10 11  1  0  0  0  0
 11 12  1  0  0  0  0
 12 13  1  0  0  0  0
 13 14  1  0  0  0  0
  9 14  1  0  0  0  0
 10 15  1  1  0  0  0
  7 15  1  0  0  0  0
  9 16  1  6  0  0  0
 13 17  1  6  0  0  0
 14 18  1  1  0  0  0
 11 19  1  1  0  0  0
 12 20  1  1  0  0  0
  1 21  1  0  0  0  0
  5 22  1  0  0  0  0
 22 23  1  0  0  0  0
 22 24  2  0  0  0  0
  7 25  1  0  0  0  0
M  CHG  1  25  -1
M  RGP  2  21   1  23   2
M  END

>  <ACTIVITY>
5.00
$$$$
74615

  Mrv0541 05041708512D          

 25 25  0  0  1  0            999 V2000
    7.2287   -3.4042    0.0000 C   0  0  2  0  0  0  0  0  0  0  0  0
    7.9431   -3.8167    0.0000 C   0  0  2  0  0  0  0  0  0  0  0  0
    8.6575   -3.4042    0.0000 C   0  0  0  0  0  0  0  0  0  0  0  0
    9.3729   -3.8884    0.0000 O   0  0  0  0  0  0  0  0  0  0  0  0
    7.9431   -4.7415    0.0000 N   0  0  0  0  0  0  0  0  0  0  0  0
    7.2287   -2.5792    0.0000 O   0  0  0  0  0  0  0  0  0  0  0  0
   10.1846   -3.8817    0.0000 P   0  0  0  0  0  0  0  0  0  0  0  0
   10.1846   -3.0567    0.0000 O   0  0  0  0  0  0  0  0  0  0  0  0
   12.4386   -3.8817    0.0000 C   0  0  1  0  0  0  0  0  0  0  0  0
   11.7242   -4.2945    0.0000 C   0  0  1  0  0  0  0  0  0  0  0  0
   11.7242   -5.1195    0.0000 C   0  0  1  0  0  0  0  0  0  0  0  0
   12.4386   -5.5320    0.0000 C   0  0  1  0  0  0  0  0  0  0  0  0
   13.1532   -5.1195    0.0000 C   0  0  2  0  0  0  0  0  0  0  0  0
   13.1532   -4.2945    0.0000 C   0  0  2  0  0  0  0  0  0  0  0  0
   11.0098   -3.8817    0.0000 O   0  0  0  0  0  0  0  0  0  0  0  0
   12.4386   -3.0567    0.0000 O   0  0  0  0  0  0  0  0  0  0  0  0
   13.8676   -5.5320    0.0000 O   0  0  0  0  0  0  0  0  0  0  0  0
   13.8676   -3.8817    0.0000 O   0  0  0  0  0  0  0  0  0  0  0  0
   11.0098   -5.5320    0.0000 O   0  0  0  0  0  0  0  0  0  0  0  0
   12.4386   -6.3570    0.0000 O   0  0  0  0  0  0  0  0  0  0  0  0
    6.5143   -3.8168    0.0000 R#  0  0  0  0  0  0  0  0  0  0  0  0
    7.9431   -5.5665    0.0000 C   0  0  0  0  0  0  0  0  0  0  0  0
    7.2286   -5.9790    0.0000 R#  0  0  0  0  0  0  0  0  0  0  0  0
    8.6576   -5.9790    0.0000 O   0  0  0  0  0  0  0  0  0  0  0  0
    9.9711   -4.6786    0.0000 O   0  5  0  0  0  0  0  0  0  0  0  0
  1  2  1  0  0  0  0
  2  3  1  0  0  0  0
  3  4  1  0  0  0  0
  2  5  1  6  0  0  0
  1  6  1  1  0  0  0
  4  7  1  0  0  0  0
  7  8  2  0  0  0  0
  9 10  1  0  0  0  0
 10 11  1  0  0  0  0
 11 12  1  0  0  0  0
 12 13  1  0  0  0  0
 13 14  1  0  0  0  0
  9 14  1  0  0  0  0
 10 15  1  1  0  0  0
  7 15  1  0  0  0  0
  9 16  1  6  0  0  0
 13 17  1  6  0  0  0
 14 18  1  1  0  0  0
 11 19  1  1  0  0  0
 12 20  1  1  0  0  0
  1 21  1  0  0  0  0
  5 22  1  0  0  0  0
 22 23  1  0  0  0  0
 22 24  2  0  0  0  0
  7 25  1  0  0  0  0
M  CHG  1  25  -1
M  RGP  2  21   1  23   2
M  END

>  <ACTIVITY>
5.00
$$$$
74616

  Mrv0541 05041708512D          

 25 25  0  0  1  0            999 V2000
    7.2287   -3.4042    0.0000 C   0  0  2  0  0  0  0  0  0  0  0  0
    7.9431   -3.8167    0.0000 C   0  0  2  0  0  0  0  0  0  0  0  0
    8.6575   -3.4042    0.0000 C   0  0  0  0  0  0  0  0  0  0  0  0
    9.3729   -3.8884    0.0000 O   0  0  0  0  0  0  0  0  0  0  0  0
    7.9431   -4.7415    0.0000 N   0  0  0  0  0  0  0  0  0  0  0  0
    7.2287   -2.5792    0.0000 O   0  0  0  0  0  0  0  0  0  0  0  0
   10.1846   -3.8817    0.0000 P   0  0  0  0  0  0  0  0  0  0  0  0
   10.1846   -3.0567    0.0000 O   0  0  0  0  0  0  0  0  0  0  0  0
   12.4386   -3.8817    0.0000 C   0  0  1  0  0  0  0  0  0  0  0  0
   11.7242   -4.2945    0.0000 C   0  0  1  0  0  0  0  0  0  0  0  0
   11.7242   -5.1195    0.0000 C   0  0  1  0  0  0  0  0  0  0  0  0
   12.4386   -5.5320    0.0000 C   0  0  1  0  0  0  0  0  0  0  0  0
   13.1532   -5.1195    0.0000 C   0  0  2  0  0  0  0  0  0  0  0  0
   13.1532   -4.2945    0.0000 C   0  0  2  0  0  0  0  0  0  0  0  0
   11.0098   -3.8817    0.0000 O   0  0  0  0  0  0  0  0  0  0  0  0
   12.4386   -3.0567    0.0000 O   0  0  0  0  0  0  0  0  0  0  0  0
   13.8676   -5.5320    0.0000 O   0  0  0  0  0  0  0  0  0  0  0  0
   13.8676   -3.8817    0.0000 O   0  0  0  0  0  0  0  0  0  0  0  0
   11.0098   -5.5320    0.0000 O   0  0  0  0  0  0  0  0  0  0  0  0
   12.4386   -6.3570    0.0000 O   0  0  0  0  0  0  0  0  0  0  0  0
    6.5143   -3.8168    0.0000 R#  0  0  0  0  0  0  0  0  0  0  0  0
    7.9431   -5.5665    0.0000 C   0  0  0  0  0  0  0  0  0  0  0  0
    7.2286   -5.9790    0.0000 R#  0  0  0  0  0  0  0  0  0  0  0  0
    8.6576   -5.9790    0.0000 O   0  0  0  0  0  0  0  0  0  0  0  0
    9.9711   -4.6786    0.0000 O   0  5  0  0  0  0  0  0  0  0  0  0
  1  2  1  0  0  0  0
  2  3  1  0  0  0  0
  3  4  1  0  0  0  0
  2  5  1  6  0  0  0
  1  6  1  1  0  0  0
  4  7  1  0  0  0  0
  7  8  2  0  0  0  0
  9 10  1  0  0  0  0
 10 11  1  0  0  0  0
 11 12  1  0  0  0  0
 12 13  1  0  0  0  0
 13 14  1  0  0  0  0
  9 14  1  0  0  0  0
 10 15  1  1  0  0  0
  7 15  1  0  0  0  0
  9 16  1  6  0  0  0
 13 17  1  6  0  0  0
 14 18  1  1  0  0  0
 11 19  1  1  0  0  0
 12 20  1  1  0  0  0
  1 21  1  0  0  0  0
  5 22  1  0  0  0  0
 22 23  1  0  0  0  0
 22 24  2  0  0  0  0
  7 25  1  0  0  0  0
M  CHG  1  25  -1
M  RGP  2  21   1  23   2
M  END

>  <ACTIVITY>
5.00
$$$$
64279

  Mrv0541 05041708512D          

 50 52  0  0  1  0            999 V2000
    1.4289   -0.4125    0.0000 C   0  0  1  0  0  0  0  0  0  0  0  0
    0.7145   -0.8250    0.0000 C   0  0  2  0  0  0  0  0  0  0  0  0
    0.7145    0.8250    0.0000 C   0  0  0  0  0  0  0  0  0  0  0  0
    0.7145   -1.6500    0.0000 C   0  0  1  0  0  0  0  0  0  0  0  0
    0.7145    1.6500    0.0000 C   0  0  2  0  0  0  0  0  0  0  0  0
    0.0000   -2.0625    0.0000 C   0  0  2  0  0  0  0  0  0  0  0  0
    0.0000    2.0625    0.0000 C   0  0  0  0  0  0  0  0  0  0  0  0
   -0.7145   -1.6500    0.0000 C   0  0  0  0  0  0  0  0  0  0  0  0
   -0.7145    1.6500    0.0000 C   0  0  1  0  0  0  0  0  0  0  0  0
   -0.7145   -0.8250    0.0000 O   0  0  0  0  0  0  0  0  0  0  0  0
   -0.7145    0.8250    0.0000 C   0  0  1  0  0  0  0  0  0  0  0  0
   -1.4289   -0.4125    0.0000 C   0  0  2  0  0  0  0  0  0  0  0  0
    2.1434   -0.8250    0.0000 O   0  0  0  0  0  0  0  0  0  0  0  0
    0.0000   -0.4125    0.0000 C   0  0  0  0  0  0  0  0  0  0  0  0
    2.8578   -0.4125    0.0000 C   0  0  1  0  0  0  0  0  0  0  0  0
    1.4289   -2.0625    0.0000 O   0  0  0  0  0  0  0  0  0  0  0  0
    3.5723   -0.8250    0.0000 C   0  0  1  0  0  0  0  0  0  0  0  0
    2.8578    0.4125    0.0000 O   0  0  0  0  0  0  0  0  0  0  0  0
    1.4289    2.0625    0.0000 C   0  0  0  0  0  0  0  0  0  0  0  0
    1.4289   -2.8875    0.0000 C   0  0  1  0  0  0  0  0  0  0  0  0
    0.0000   -2.8875    0.0000 C   0  0  0  0  0  0  0  0  0  0  0  0
    4.2868   -0.4125    0.0000 C   0  0  2  0  0  0  0  0  0  0  0  0
    3.5723   -1.6500    0.0000 O   0  0  0  0  0  0  0  0  0  0  0  0
    3.5723    0.8250    0.0000 C   0  0  1  0  0  0  0  0  0  0  0  0
    0.0000    2.8875    0.0000 O   0  0  0  0  0  0  0  0  0  0  0  0
    0.7144   -3.3000    0.0000 C   0  0  0  0  0  0  0  0  0  0  0  0
    2.1434   -3.3000    0.0000 O   0  0  0  0  0  0  0  0  0  0  0  0
   -1.4290   -2.0625    0.0000 O   0  0  0  0  0  0  0  0  0  0  0  0
    4.2868    0.4125    0.0000 C   0  0  0  0  0  0  0  0  0  0  0  0
    5.0013   -0.8250    0.0000 N   0  3  0  0  0  0  0  0  0  0  0  0
    3.5723    1.6500    0.0000 C   0  0  0  0  0  0  0  0  0  0  0  0
   -1.4290    2.0625    0.0000 C   0  0  0  0  0  0  0  0  0  0  0  0
    2.1434   -4.1250    0.0000 C   0  0  2  0  0  0  0  0  0  0  0  0
    5.7157   -0.4125    0.0000 C   0  0  0  0  0  0  0  0  0  0  0  0
    5.0013   -1.6500    0.0000 C   0  0  0  0  0  0  0  0  0  0  0  0
    0.0000    0.4125    0.0000 O   0  0  0  0  0  0  0  0  0  0  0  0
    1.4289   -4.5375    0.0000 C   0  0  2  0  0  0  0  0  0  0  0  0
    2.8578   -4.5375    0.0000 C   0  0  0  0  0  0  0  0  0  0  0  0
    1.4289   -5.3625    0.0000 O   0  0  0  0  0  0  0  0  0  0  0  0
    0.7144   -4.1250    0.0000 C   0  0  2  0  0  0  0  0  0  0  0  0
   -2.1435   -0.8250    0.0000 C   0  0  0  0  0  0  0  0  0  0  0  0
   -2.8579   -0.4125    0.0000 C   0  0  0  0  0  0  0  0  0  0  0  0
    0.7144   -4.9500    0.0000 O   0  0  0  0  0  0  0  0  0  0  0  0
   -0.0001   -5.3625    0.0000 C   0  0  0  0  0  0  0  0  0  0  0  0
    0.0000   -4.5375    0.0000 C   0  0  0  0  0  0  0  0  0  0  0  0
   -1.4289    0.4125    0.0000 C   0  0  2  0  0  0  0  0  0  0  0  0
    1.4289    0.4125    0.0000 C   0  0  1  0  0  0  0  0  0  0  0  0
    1.4289    1.2375    0.0000 O   0  0  0  0  0  0  0  0  0  0  0  0
   -2.1434    0.8249    0.0000 C   0  0  0  0  0  0  0  0  0  0  0  0
    2.1434    0.8250    0.0000 C   0  0  0  0  0  0  0  0  0  0  0  0
  1 13  1  6  0  0  0
  1 47  1  0  0  0  0
 47 50  1  6  0  0  0
  2  1  1  0  0  0  0
  2 14  1  6  0  0  0
 47  3  1  0  0  0  0
  2  4  1  0  0  0  0
  4 16  1  6  0  0  0
  3  5  1  0  0  0  0
  5 19  1  6  0  0  0
  4  6  1  0  0  0  0
  6 21  1  1  0  0  0
  5  7  1  0  0  0  0
  7 25  2  0  0  0  0
  6  8  1  0  0  0  0
  8 28  2  0  0  0  0
  9  7  1  0  0  0  0
  9 32  1  1  0  0  0
  8 10  1  0  0  0  0
 11  9  1  0  0  0  0
 11 36  1  1  0  0  0
 12 10  1  0  0  0  0
 12 41  1  6  0  0  0
 46 12  1  0  0  0  0
 11 46  1  0  0  0  0
 46 49  1  6  0  0  0
 15 13  1  6  0  0  0
 15 17  1  0  0  0  0
 15 18  1  0  0  0  0
 20 16  1  6  0  0  0
 17 22  1  0  0  0  0
 17 23  1  1  0  0  0
 18 24  1  0  0  0  0
 20 26  1  0  0  0  0
 20 27  1  0  0  0  0
 22 29  1  0  0  0  0
 22 30  1  6  0  0  0
 24 31  1  6  0  0  0
 24 29  1  0  0  0  0
 26 40  1  0  0  0  0
 27 33  1  0  0  0  0
 30 34  1  0  0  0  0
 30 35  1  0  0  0  0
 33 38  1  1  0  0  0
 33 37  1  0  0  0  0
 40 37  1  0  0  0  0
 37 39  1  6  0  0  0
 40 43  1  6  0  0  0
 40 45  1  1  0  0  0
 41 42  1  0  0  0  0
 43 44  1  0  0  0  0
 47 48  1  1  0  0  0
M  CHG  1  30   1
M  END

>  <ACTIVITY>
5.00
$$$$
67403

  Mrv0541 05041708512D          

 26 29  0  0  0  0            999 V2000
   -0.5417  -13.3083    0.0000 C   0  0  0  0  0  0  0  0  0  0  0  0
   -0.9583  -14.0250    0.0000 C   0  0  0  0  0  0  0  0  0  0  0  0
   -1.7667  -13.8458    0.0000 C   0  0  0  0  0  0  0  0  0  0  0  0
   -1.0917  -12.6917    0.0000 O   0  0  0  0  0  0  0  0  0  0  0  0
   -1.8458  -13.0292    0.0000 C   0  0  0  0  0  0  0  0  0  0  0  0
    0.6958  -14.0333    0.0000 C   0  0  0  0  0  0  0  0  0  0  0  0
    0.2875  -13.3125    0.0000 C   0  0  0  0  0  0  0  0  0  0  0  0
   -0.5458  -14.7458    0.0000 C   0  0  0  0  0  0  0  0  0  0  0  0
    0.2792  -14.7458    0.0000 C   0  0  0  0  0  0  0  0  0  0  0  0
   -2.4333  -14.3250    0.0000 C   0  0  0  0  0  0  0  0  0  0  0  0
    1.5208  -14.0417    0.0000 C   0  0  0  0  0  0  0  0  0  0  0  0
   -2.5917  -12.6875    0.0000 C   0  0  0  0  0  0  0  0  0  0  0  0
   -3.1792  -13.9875    0.0000 C   0  0  0  0  0  0  0  0  0  0  0  0
   -3.2625  -13.1667    0.0000 C   0  0  0  0  0  0  0  0  0  0  0  0
    1.9292  -14.7542    0.0000 C   0  0  0  0  0  0  0  0  0  0  0  0
    2.7542  -14.7583    0.0000 C   0  0  0  0  0  0  0  0  0  0  0  0
    3.1667  -14.0417    0.0000 C   0  0  0  0  0  0  0  0  0  0  0  0
    1.9375  -13.3292    0.0000 C   0  0  0  0  0  0  0  0  0  0  0  0
    2.7583  -13.3292    0.0000 C   0  0  0  0  0  0  0  0  0  0  0  0
   -0.9583  -15.4583    0.0000 O   0  0  0  0  0  0  0  0  0  0  0  0
    0.7042  -12.6000    0.0000 O   0  0  0  0  0  0  0  0  0  0  0  0
   -3.8500  -14.4708    0.0000 O   0  0  0  0  0  0  0  0  0  0  0  0
   -4.0167  -12.8250    0.0000 O   0  0  0  0  0  0  0  0  0  0  0  0
    3.1625  -15.4792    0.0000 O   0  0  0  0  0  0  0  0  0  0  0  0
    3.9958  -14.0458    0.0000 O   0  0  0  0  0  0  0  0  0  0  0  0
    0.3000  -11.8833    0.0000 C   0  0  0  0  0  0  0  0  0  0  0  0
  2  1  2  0  0  0  0
  3  2  1  0  0  0  0
  4  1  1  0  0  0  0
  5  4  1  0  0  0  0
  6  7  2  0  0  0  0
  7  1  1  0  0  0  0
  8  2  1  0  0  0  0
  9  8  2  0  0  0  0
 10  3  1  0  0  0  0
 11  6  1  0  0  0  0
 12  5  1  0  0  0  0
 13 10  2  0  0  0  0
 14 12  2  0  0  0  0
 15 11  1  0  0  0  0
 16 15  2  0  0  0  0
 17 16  1  0  0  0  0
 18 11  2  0  0  0  0
 19 18  1  0  0  0  0
 20  8  1  0  0  0  0
 21  7  1  0  0  0  0
 22 13  1  0  0  0  0
 23 14  1  0  0  0  0
 24 16  1  0  0  0  0
 25 17  1  0  0  0  0
 26 21  1  0  0  0  0
  5  3  2  0  0  0  0
  6  9  1  0  0  0  0
 13 14  1  0  0  0  0
 19 17  2  0  0  0  0
M  END

>  <ACTIVITY>
5.00
$$$$
55376

  Mrv0541 05041708512D          

 43 50  0  0  0  0            999 V2000
   -1.6487    0.7096    0.0000 C   0  0  0  0  0  0  0  0  0  0  0  0
   -0.7096    1.6696    0.0000 C   0  0  0  0  0  0  0  0  0  0  0  0
    0.0000    2.0870    0.0000 C   0  0  0  0  0  0  0  0  0  0  0  0
    0.7305    1.6696    0.0000 C   0  0  0  0  0  0  0  0  0  0  0  0
    1.6696    0.7096    0.0000 C   0  0  0  0  0  0  0  0  0  0  0  0
    2.0871    0.0000    0.0000 C   0  0  0  0  0  0  0  0  0  0  0  0
    1.6696   -0.7096    0.0000 C   0  0  0  0  0  0  0  0  0  0  0  0
    0.7305   -1.6697    0.0000 C   0  0  0  0  0  0  0  0  0  0  0  0
    0.0000   -2.0871    0.0000 C   0  0  0  0  0  0  0  0  0  0  0  0
   -0.7096   -1.6697    0.0000 C   0  0  0  0  0  0  0  0  0  0  0  0
   -1.6487   -0.7096    0.0000 C   0  0  0  0  0  0  0  0  0  0  0  0
   -2.0661    0.0000    0.0000 C   0  0  0  0  0  0  0  0  0  0  0  0
    0.8557    0.8557    0.0000 N   0  3  0  0  0  0  0  0  0  0  0  0
    0.8557   -0.8557    0.0000 N   0  0  0  0  0  0  0  0  0  0  0  0
   -0.8348   -0.8557    0.0000 N   0  3  0  0  0  0  0  0  0  0  0  0
   -2.0244    1.4609    0.0000 C   0  0  0  0  0  0  0  0  0  0  0  0
   -2.8213    1.6744    0.0000 C   0  0  0  0  0  0  0  0  0  0  0  0
    1.4610    2.0453    0.0000 C   0  0  0  0  0  0  0  0  0  0  0  0
    1.6745    2.8422    0.0000 C   0  0  0  0  0  0  0  0  0  0  0  0
    2.0662   -1.4609    0.0000 C   0  0  0  0  0  0  0  0  0  0  0  0
    2.8630   -1.6744    0.0000 C   0  0  0  0  0  0  0  0  0  0  0  0
   -2.0244   -1.4609    0.0000 C   0  0  0  0  0  0  0  0  0  0  0  0
   -2.8213   -1.6744    0.0000 C   0  0  0  0  0  0  0  0  0  0  0  0
   -1.4400    2.0453    0.0000 C   0  0  0  0  0  0  0  0  0  0  0  0
   -1.6535    2.8422    0.0000 C   0  0  0  0  0  0  0  0  0  0  0  0
   -2.4504    3.0557    0.0000 C   0  0  0  0  0  0  0  0  0  0  0  0
    2.0662    1.4609    0.0000 C   0  0  0  0  0  0  0  0  0  0  0  0
    2.8630    1.6744    0.0000 C   0  0  0  0  0  0  0  0  0  0  0  0
    3.0765    2.4713    0.0000 C   0  0  0  0  0  0  0  0  0  0  0  0
   -1.4400   -2.0453    0.0000 C   0  0  0  0  0  0  0  0  0  0  0  0
   -1.6535   -2.8422    0.0000 C   0  0  0  0  0  0  0  0  0  0  0  0
   -2.4504   -3.0557    0.0000 C   0  0  0  0  0  0  0  0  0  0  0  0
    1.4610   -2.0453    0.0000 C   0  0  0  0  0  0  0  0  0  0  0  0
    1.6745   -2.8422    0.0000 C   0  0  0  0  0  0  0  0  0  0  0  0
    2.4714   -3.0557    0.0000 C   0  0  0  0  0  0  0  0  0  0  0  0
   -3.4608   -4.0661    0.0000 O   0  5  0  0  0  0  0  0  0  0  0  0
   -2.6639   -3.8526    0.0000 C   0  0  0  0  0  0  0  0  0  0  0  0
   -2.0806   -4.4360    0.0000 O   0  0  0  0  0  0  0  0  0  0  0  0
    2.1016   -4.4360    0.0000 O   0  5  0  0  0  0  0  0  0  0  0  0
    2.6848   -3.8526    0.0000 C   0  0  0  0  0  0  0  0  0  0  0  0
    3.4817   -4.0661    0.0000 O   0  0  0  0  0  0  0  0  0  0  0  0
   -0.8348    0.8557    0.0000 N   0  0  0  0  0  0  0  0  0  0  0  0
    0.0000    0.0000    0.0000 Fe  0  5  0  0  0  0  0  0  0  0  0  0
  1 42  1  0  0  0  0
 16  1  2  0  0  0  0
  1 12  1  0  0  0  0
  2  3  1  0  0  0  0
 42  2  1  0  0  0  0
 24  2  2  0  0  0  0
  3  4  2  0  0  0  0
  4 13  1  0  0  0  0
 18  4  1  0  0  0  0
  5  6  1  0  0  0  0
 13  5  2  0  0  0  0
 27  5  1  0  0  0  0
  6  7  2  0  0  0  0
  7 14  1  0  0  0  0
  7 20  1  0  0  0  0
  8  9  2  0  0  0  0
 33  8  1  0  0  0  0
 14  8  1  0  0  0  0
 10  9  1  0  0  0  0
 15 10  2  0  0  0  0
 30 10  1  0  0  0  0
 11 12  2  0  0  0  0
 15 11  1  0  0  0  0
 22 11  1  0  0  0  0
 13 43  1  0  0  0  0
 43 14  1  0  0  0  0
 15 43  1  0  0  0  0
 24 16  1  0  0  0  0
 16 17  1  0  0  0  0
 18 27  2  0  0  0  0
 18 19  1  0  0  0  0
 20 33  2  0  0  0  0
 20 21  1  0  0  0  0
 22 30  2  0  0  0  0
 22 23  1  0  0  0  0
 24 25  1  0  0  0  0
 25 26  2  0  0  0  0
 27 28  1  0  0  0  0
 28 29  2  0  0  0  0
 30 31  1  0  0  0  0
 31 32  1  0  0  0  0
 32 37  1  0  0  0  0
 33 34  1  0  0  0  0
 34 35  1  0  0  0  0
 35 40  1  0  0  0  0
 37 36  1  0  0  0  0
 37 38  2  0  0  0  0
 40 39  1  0  0  0  0
 40 41  2  0  0  0  0
 42 43  1  0  0  0  0
M  CHG  5  13   1  15   1  36  -1  39  -1  43  -1
M  END

>  <ACTIVITY>
5.00
$$$$
59917
ChEBI
  Mrv0541 05041708512D          

 40 43  0  0  1  0            999 V2000
    8.9173  -13.7461    0.0000 C   0  0  1  0  0  0  0  0  0  0  0  0
    8.9173  -14.5711    0.0000 C   0  0  2  0  0  0  0  0  0  0  0  0
    8.2028  -13.3336    0.0000 C   0  0  1  0  0  0  0  0  0  0  0  0
    8.2028  -14.9836    0.0000 C   0  0  2  0  0  0  0  0  0  0  0  0
    7.4884  -13.7461    0.0000 C   0  0  1  0  0  0  0  0  0  0  0  0
    7.4884  -14.5711    0.0000 O   0  0  0  0  0  0  0  0  0  0  0  0
    5.7981  -13.7775    0.0000 C   0  0  1  0  0  0  0  0  0  0  0  0
    5.7981  -14.6025    0.0000 C   0  0  1  0  0  0  0  0  0  0  0  0
    5.0836  -13.3650    0.0000 C   0  0  2  0  0  0  0  0  0  0  0  0
    5.0836  -15.0150    0.0000 C   0  0  2  0  0  0  0  0  0  0  0  0
    4.3691  -13.7775    0.0000 C   0  0  1  0  0  0  0  0  0  0  0  0
    4.3691  -14.6025    0.0000 C   0  0  0  0  0  0  0  0  0  0  0  0
    5.0835  -12.5400    0.0000 O   0  0  0  0  0  0  0  0  0  0  0  0
    6.5843  -13.2864    0.0000 O   0  0  0  0  0  0  0  0  0  0  0  0
    6.4350  -15.0543    0.0000 O   0  0  0  0  0  0  0  0  0  0  0  0
    5.0836  -15.6671    0.0000 N   0  3  0  0  0  0  0  0  0  0  0  0
    3.6379  -13.4593    0.0000 N   0  3  0  0  0  0  0  0  0  0  0  0
    8.2264  -15.6200    0.0000 C   0  0  0  0  0  0  0  0  0  0  0  0
    9.5307  -14.9836    0.0000 O   0  0  0  0  0  0  0  0  0  0  0  0
    9.6486  -13.3336    0.0000 O   0  0  0  0  0  0  0  0  0  0  0  0
    8.2029  -12.5243    0.0000 O   0  0  0  0  0  0  0  0  0  0  0  0
    9.3107  -12.3514    0.0000 C   0  0  1  0  0  0  0  0  0  0  0  0
   10.7397  -11.5264    0.0000 C   0  0  2  0  0  0  0  0  0  0  0  0
   10.7397  -12.3514    0.0000 C   0  0  1  0  0  0  0  0  0  0  0  0
   10.0252  -11.1139    0.0000 C   0  0  2  0  0  0  0  0  0  0  0  0
   10.0252  -12.7639    0.0000 C   0  0  1  0  0  0  0  0  0  0  0  0
    9.3107  -11.5264    0.0000 O   0  0  0  0  0  0  0  0  0  0  0  0
   10.0729  -13.3571    0.0000 O   0  0  0  0  0  0  0  0  0  0  0  0
   11.3929  -12.7443    0.0000 O   0  0  0  0  0  0  0  0  0  0  0  0
   11.5421  -11.1257    0.0000 O   0  0  0  0  0  0  0  0  0  0  0  0
   10.0179  -10.3400    0.0000 C   0  0  0  0  0  0  0  0  0  0  0  0
   10.6622   -9.9707    0.0000 C   0  0  0  0  0  0  0  0  0  0  0  0
   10.6622   -9.2557    0.0000 O   0  0  0  0  0  0  0  0  0  0  0  0
    9.3107   -9.8764    0.0000 N   0  3  0  0  0  0  0  0  0  0  0  0
    4.5002  -16.2505    0.0000 C   0  0  0  0  0  0  0  0  0  0  0  0
    8.9409  -16.0325    0.0000 O   0  0  0  0  0  0  0  0  0  0  0  0
    6.6712  -15.8447    0.0000 P   0  0  0  0  0  0  0  0  0  0  0  0
    5.8808  -16.0809    0.0000 O   0  5  0  0  0  0  0  0  0  0  0  0
    7.4617  -15.6085    0.0000 O   0  5  0  0  0  0  0  0  0  0  0  0
    6.9074  -16.6352    0.0000 O   0  0  0  0  0  0  0  0  0  0  0  0
  2  1  1  0  0  0  0
  3  1  1  0  0  0  0
  4  2  1  0  0  0  0
  5  3  1  0  0  0  0
  6  4  1  0  0  0  0
  6  5  1  0  0  0  0
  8  7  1  0  0  0  0
  9  7  1  0  0  0  0
 10  8  1  0  0  0  0
 11  9  1  0  0  0  0
 12 10  1  0  0  0  0
 12 11  1  0  0  0  0
  9 13  1  6  0  0  0
  7 14  1  1  0  0  0
  8 15  1  6  0  0  0
 10 16  1  1  0  0  0
 11 17  1  1  0  0  0
  5 14  1  1  0  0  0
  4 18  1  1  0  0  0
  2 19  1  1  0  0  0
  1 20  1  1  0  0  0
  3 21  1  1  0  0  0
 22 21  1  1  0  0  0
 22 20  1  6  0  0  0
 24 23  1  0  0  0  0
 25 23  1  0  0  0  0
 26 24  1  0  0  0  0
 27 25  1  0  0  0  0
 22 26  1  0  0  0  0
 22 27  1  0  0  0  0
 26 28  1  1  0  0  0
 24 29  1  6  0  0  0
 23 30  1  6  0  0  0
 25 31  1  6  0  0  0
 32 31  1  0  0  0  0
 33 32  1  0  0  0  0
 34 31  1  0  0  0  0
 16 35  1  0  0  0  0
 18 36  1  0  0  0  0
 15 37  1  0  0  0  0
 37 38  1  0  0  0  0
 37 39  1  0  0  0  0
 37 40  2  0  0  0  0
M  CHG  5  16   1  17   1  34   1  38  -1  39  -1
M  END

>  <ACTIVITY>
5.00
$$$$
67531

  Mrv0541 05041708512D          

 33 36  0  0  0  0            999 V2000
   12.8378  -16.0753    0.0000 C   0  0  0  0  0  0  0  0  0  0  0  0
   12.8711  -15.2472    0.0000 C   0  0  0  0  0  0  0  0  0  0  0  0
   13.6700  -15.0225    0.0000 C   0  0  0  0  0  0  0  0  0  0  0  0
   13.6159  -16.3624    0.0000 O   0  0  0  0  0  0  0  0  0  0  0  0
   14.1278  -15.7132    0.0000 C   0  0  0  0  0  0  0  0  0  0  0  0
   11.4062  -16.0046    0.0000 C   0  0  0  0  0  0  0  0  0  0  0  0
   12.1013  -16.4540    0.0000 C   0  0  0  0  0  0  0  0  0  0  0  0
   12.1803  -14.8019    0.0000 C   0  0  0  0  0  0  0  0  0  0  0  0
   11.4479  -15.1806    0.0000 C   0  0  0  0  0  0  0  0  0  0  0  0
   14.0363  -14.2860    0.0000 C   0  0  0  0  0  0  0  0  0  0  0  0
   10.6739  -16.3833    0.0000 C   0  0  0  0  0  0  0  0  0  0  0  0
   14.9517  -15.6592    0.0000 C   0  0  0  0  0  0  0  0  0  0  0  0
   14.8602  -14.2276    0.0000 C   0  0  0  0  0  0  0  0  0  0  0  0
   15.3221  -14.9185    0.0000 C   0  0  0  0  0  0  0  0  0  0  0  0
    9.9873  -15.9380    0.0000 C   0  0  0  0  0  0  0  0  0  0  0  0
    9.2549  -16.3125    0.0000 C   0  0  0  0  0  0  0  0  0  0  0  0
    7.8275  -16.2418    0.0000 C   0  0  0  0  0  0  0  0  0  0  0  0
    9.2132  -17.1364    0.0000 C   0  0  0  0  0  0  0  0  0  0  0  0
    8.5599  -15.8672    0.0000 C   0  0  0  0  0  0  0  0  0  0  0  0
   10.6406  -17.2030    0.0000 C   0  0  0  0  0  0  0  0  0  0  0  0
    7.1367  -15.7965    0.0000 C   0  0  0  0  0  0  0  0  0  0  0  0
    9.9123  -17.5818    0.0000 C   0  0  0  0  0  0  0  0  0  0  0  0
   12.0596  -17.2737    0.0000 O   0  0  0  0  0  0  0  0  0  0  0  0
   12.2136  -13.9822    0.0000 O   0  0  0  0  0  0  0  0  0  0  0  0
   15.2223  -13.4911    0.0000 O   0  0  0  0  0  0  0  0  0  0  0  0
   16.1419  -14.8685    0.0000 O   0  0  0  0  0  0  0  0  0  0  0  0
    8.4809  -17.5151    0.0000 O   0  0  0  0  0  0  0  0  0  0  0  0
    6.4043  -16.1711    0.0000 C   0  0  0  0  0  0  0  0  0  0  0  0
    7.1783  -14.9726    0.0000 C   0  0  0  0  0  0  0  0  0  0  0  0
   11.3272  -17.6525    0.0000 C   0  0  0  0  0  0  0  0  0  0  0  0
   11.5228  -13.5369    0.0000 C   0  0  0  0  0  0  0  0  0  0  0  0
   16.0462  -13.4370    0.0000 C   0  0  0  0  0  0  0  0  0  0  0  0
   16.5081  -14.1278    0.0000 C   0  0  0  0  0  0  0  0  0  0  0  0
  2  1  1  0  0  0  0
  3  2  1  0  0  0  0
  4  1  1  0  0  0  0
  5  4  1  0  0  0  0
  6  7  1  0  0  0  0
  7  1  2  0  0  0  0
  8  2  2  0  0  0  0
  9  6  2  0  0  0  0
 10  3  1  0  0  0  0
 11  6  1  0  0  0  0
 12  5  1  0  0  0  0
 13 10  2  0  0  0  0
 14 12  2  0  0  0  0
 15 11  2  0  0  0  0
 16 15  1  0  0  0  0
 17 19  1  0  0  0  0
 18 22  1  0  0  0  0
 19 16  1  0  0  0  0
 20 11  1  0  0  0  0
 21 17  2  0  0  0  0
 22 20  2  0  0  0  0
 23  7  1  0  0  0  0
 24  8  1  0  0  0  0
 25 13  1  0  0  0  0
 26 14  1  0  0  0  0
 27 18  1  0  0  0  0
 28 21  1  0  0  0  0
 29 21  1  0  0  0  0
 30 23  1  0  0  0  0
 31 24  1  0  0  0  0
 32 25  1  0  0  0  0
 33 26  1  0  0  0  0
  5  3  2  0  0  0  0
  9  8  1  0  0  0  0
 13 14  1  0  0  0  0
 18 16  2  0  0  0  0
M  END

>  <ACTIVITY>
5.00
$$$$
74988

  Mrv0541 05041708512D          

 36 37  0  0  1  0            999 V2000
    5.2856   -8.7988    0.0000 N   0  0  0  0  0  0  0  0  0  0  0  0
    3.8567   -7.8741    0.0000 R   0  0  0  0  0  0  0  0  0  0  0  0
    4.5712   -7.4617    0.0000 C   0  0  2  0  0  0  0  0  0  0  0  0
    5.2856   -7.8742    0.0000 C   0  0  2  0  0  0  0  0  0  0  0  0
    6.0000   -7.4617    0.0000 C   0  0  0  0  0  0  0  0  0  0  0  0
    6.7154   -7.9457    0.0000 O   0  0  0  0  0  0  0  0  0  0  0  0
    4.5712   -6.6367    0.0000 O   0  0  0  0  0  0  0  0  0  0  0  0
    7.5271   -7.9390    0.0000 P   0  0  0  0  0  0  0  0  0  0  0  0
    7.5271   -7.1140    0.0000 O   0  5  0  0  0  0  0  0  0  0  0  0
    7.5271   -8.7640    0.0000 O   0  0  0  0  0  0  0  0  0  0  0  0
    9.7811   -7.9390    0.0000 C   0  0  1  0  0  0  0  0  0  0  0  0
    9.0667   -8.3519    0.0000 C   0  0  1  0  0  0  0  0  0  0  0  0
    9.0667   -9.1769    0.0000 C   0  0  1  0  0  0  0  0  0  0  0  0
    9.7811   -9.5894    0.0000 C   0  0  1  0  0  0  0  0  0  0  0  0
   10.4957   -9.1769    0.0000 C   0  0  2  0  0  0  0  0  0  0  0  0
   10.4957   -8.3519    0.0000 C   0  0  2  0  0  0  0  0  0  0  0  0
    8.3523   -7.9390    0.0000 O   0  0  0  0  0  0  0  0  0  0  0  0
    9.7811   -7.1140    0.0000 O   0  0  0  0  0  0  0  0  0  0  0  0
   11.2101   -9.5894    0.0000 O   0  0  0  0  0  0  0  0  0  0  0  0
   11.2101   -7.9390    0.0000 O   0  0  0  0  0  0  0  0  0  0  0  0
    8.3523   -9.5894    0.0000 O   0  0  0  0  0  0  0  0  0  0  0  0
    9.7811  -10.4144    0.0000 O   0  0  0  0  0  0  0  0  0  0  0  0
   10.4957   -6.7015    0.0000 C   0  0  0  0  0  0  0  0  0  0  0  0
   11.2101   -5.4640    0.0000 C   0  0  2  0  0  0  0  0  0  0  0  0
   10.4957   -5.8765    0.0000 C   0  0  2  0  0  0  0  0  0  0  0  0
   11.2101   -7.1140    0.0000 O   0  0  0  0  0  0  0  0  0  0  0  0
   11.9245   -6.7015    0.0000 C   0  0  1  0  0  0  0  0  0  0  0  0
   11.9245   -5.8765    0.0000 C   0  0  1  0  0  0  0  0  0  0  0  0
   12.6392   -7.1140    0.0000 C   0  0  0  0  0  0  0  0  0  0  0  0
   11.2101   -4.6390    0.0000 O   0  0  0  0  0  0  0  0  0  0  0  0
    9.7811   -5.4640    0.0000 O   0  0  0  0  0  0  0  0  0  0  0  0
   12.6392   -5.4640    0.0000 O   0  0  0  0  0  0  0  0  0  0  0  0
   13.3536   -6.7015    0.0000 O   0  0  0  0  0  0  0  0  0  0  0  0
    5.2856   -9.6238    0.0000 C   0  0  0  0  0  0  0  0  0  0  0  0
    4.5711  -10.0363    0.0000 R   0  0  0  0  0  0  0  0  0  0  0  0
    6.0001  -10.0363    0.0000 O   0  0  0  0  0  0  0  0  0  0  0  0
  2  3  1  0  0  0  0
  3  4  1  0  0  0  0
  4  5  1  0  0  0  0
  5  6  1  0  0  0  0
  4  1  1  6  0  0  0
  3  7  1  1  0  0  0
  6  8  1  0  0  0  0
  8  9  1  0  0  0  0
  8 10  2  0  0  0  0
 11 12  1  0  0  0  0
 12 13  1  0  0  0  0
 13 14  1  0  0  0  0
 14 15  1  0  0  0  0
 15 16  1  0  0  0  0
 11 16  1  0  0  0  0
 12 17  1  1  0  0  0
  8 17  1  0  0  0  0
 11 18  1  6  0  0  0
 15 19  1  6  0  0  0
 16 20  1  1  0  0  0
 13 21  1  1  0  0  0
 14 22  1  1  0  0  0
 18 23  1  0  0  0  0
 25 23  1  0  0  0  0
 23 26  1  0  0  0  0
 24 25  1  0  0  0  0
 26 27  1  0  0  0  0
 27 28  1  0  0  0  0
 24 28  1  0  0  0  0
 27 29  1  1  0  0  0
 24 30  1  1  0  0  0
 25 31  1  1  0  0  0
 28 32  1  6  0  0  0
 29 33  1  0  0  0  0
  1 34  1  0  0  0  0
 34 35  1  0  0  0  0
 34 36  2  0  0  0  0
M  CHG  1   9  -1
M  END

>  <ACTIVITY>
5.00
$$$$
74989

  Mrv0541 05041708512D          

 36 37  0  0  1  0            999 V2000
    5.2856   -8.7988    0.0000 N   0  0  0  0  0  0  0  0  0  0  0  0
    3.8567   -7.8741    0.0000 R   0  0  0  0  0  0  0  0  0  0  0  0
    4.5712   -7.4617    0.0000 C   0  0  2  0  0  0  0  0  0  0  0  0
    5.2856   -7.8742    0.0000 C   0  0  2  0  0  0  0  0  0  0  0  0
    6.0000   -7.4617    0.0000 C   0  0  0  0  0  0  0  0  0  0  0  0
    6.7154   -7.9457    0.0000 O   0  0  0  0  0  0  0  0  0  0  0  0
    4.5712   -6.6367    0.0000 O   0  0  0  0  0  0  0  0  0  0  0  0
    7.5271   -7.9390    0.0000 P   0  0  0  0  0  0  0  0  0  0  0  0
    7.5271   -7.1140    0.0000 O   0  5  0  0  0  0  0  0  0  0  0  0
    7.5271   -8.7640    0.0000 O   0  0  0  0  0  0  0  0  0  0  0  0
    9.7811   -7.9390    0.0000 C   0  0  1  0  0  0  0  0  0  0  0  0
    9.0667   -8.3519    0.0000 C   0  0  1  0  0  0  0  0  0  0  0  0
    9.0667   -9.1769    0.0000 C   0  0  1  0  0  0  0  0  0  0  0  0
    9.7811   -9.5894    0.0000 C   0  0  1  0  0  0  0  0  0  0  0  0
   10.4957   -9.1769    0.0000 C   0  0  2  0  0  0  0  0  0  0  0  0
   10.4957   -8.3519    0.0000 C   0  0  2  0  0  0  0  0  0  0  0  0
    8.3523   -7.9390    0.0000 O   0  0  0  0  0  0  0  0  0  0  0  0
    9.7811   -7.1140    0.0000 O   0  0  0  0  0  0  0  0  0  0  0  0
   11.2101   -9.5894    0.0000 O   0  0  0  0  0  0  0  0  0  0  0  0
   11.2101   -7.9390    0.0000 O   0  0  0  0  0  0  0  0  0  0  0  0
    8.3523   -9.5894    0.0000 O   0  0  0  0  0  0  0  0  0  0  0  0
    9.7811  -10.4144    0.0000 O   0  0  0  0  0  0  0  0  0  0  0  0
   10.4957   -6.7015    0.0000 C   0  0  0  0  0  0  0  0  0  0  0  0
   11.2101   -5.4640    0.0000 C   0  0  2  0  0  0  0  0  0  0  0  0
   10.4957   -5.8765    0.0000 C   0  0  2  0  0  0  0  0  0  0  0  0
   11.2101   -7.1140    0.0000 O   0  0  0  0  0  0  0  0  0  0  0  0
   11.9245   -6.7015    0.0000 C   0  0  1  0  0  0  0  0  0  0  0  0
   11.9245   -5.8765    0.0000 C   0  0  1  0  0  0  0  0  0  0  0  0
   12.6392   -7.1140    0.0000 C   0  0  0  0  0  0  0  0  0  0  0  0
   11.2101   -4.6390    0.0000 O   0  0  0  0  0  0  0  0  0  0  0  0
    9.7811   -5.4640    0.0000 O   0  0  0  0  0  0  0  0  0  0  0  0
   12.6392   -5.4640    0.0000 O   0  0  0  0  0  0  0  0  0  0  0  0
   13.3536   -6.7015    0.0000 O   0  0  0  0  0  0  0  0  0  0  0  0
    5.2856   -9.6238    0.0000 C   0  0  0  0  0  0  0  0  0  0  0  0
    4.5711  -10.0363    0.0000 R   0  0  0  0  0  0  0  0  0  0  0  0
    6.0001  -10.0363    0.0000 O   0  0  0  0  0  0  0  0  0  0  0  0
  2  3  1  0  0  0  0
  3  4  1  0  0  0  0
  4  5  1  0  0  0  0
  5  6  1  0  0  0  0
  4  1  1  6  0  0  0
  3  7  1  1  0  0  0
  6  8  1  0  0  0  0
  8  9  1  0  0  0  0
  8 10  2  0  0  0  0
 11 12  1  0  0  0  0
 12 13  1  0  0  0  0
 13 14  1  0  0  0  0
 14 15  1  0  0  0  0
 15 16  1  0  0  0  0
 11 16  1  0  0  0  0
 12 17  1  1  0  0  0
  8 17  1  0  0  0  0
 11 18  1  6  0  0  0
 15 19  1  6  0  0  0
 16 20  1  1  0  0  0
 13 21  1  1  0  0  0
 14 22  1  1  0  0  0
 18 23  1  0  0  0  0
 25 23  1  0  0  0  0
 23 26  1  0  0  0  0
 24 25  1  0  0  0  0
 26 27  1  0  0  0  0
 27 28  1  0  0  0  0
 24 28  1  0  0  0  0
 27 29  1  1  0  0  0
 24 30  1  1  0  0  0
 25 31  1  1  0  0  0
 28 32  1  6  0  0  0
 29 33  1  0  0  0  0
  1 34  1  0  0  0  0
 34 35  1  0  0  0  0
 34 36  2  0  0  0  0
M  CHG  1   9  -1
M  END

>  <ACTIVITY>
5.00
$$$$
65472

  Mrv0541 05041708512D          

 19 21  0  0  0  0            999 V2000
   14.2153  -16.9979    0.0000 C   0  0  0  0  0  0  0  0  0  0  0  0
   13.8403  -17.7325    0.0000 C   0  0  0  0  0  0  0  0  0  0  0  0
   14.2887  -18.4224    0.0000 C   0  0  0  0  0  0  0  0  0  0  0  0
   15.0326  -16.9566    0.0000 C   0  0  0  0  0  0  0  0  0  0  0  0
   15.1125  -18.3734    0.0000 C   0  0  0  0  0  0  0  0  0  0  0  0
   15.4851  -17.6399    0.0000 C   0  0  0  0  0  0  0  0  0  0  0  0
   16.2944  -17.4731    0.0000 O   0  0  0  0  0  0  0  0  0  0  0  0
   15.4569  -19.1302    0.0000 C   0  0  0  0  0  0  0  0  0  0  0  0
   16.2581  -19.3245    0.0000 C   0  0  0  0  0  0  0  0  0  0  0  0
   16.9270  -17.9929    0.0000 C   0  0  0  0  0  0  0  0  0  0  0  0
   16.9170  -18.8188    0.0000 C   0  0  0  0  0  0  0  0  0  0  0  0
   18.3576  -18.0108    0.0000 C   0  0  0  0  0  0  0  0  0  0  0  0
   17.6480  -17.5896    0.0000 C   0  0  0  0  0  0  0  0  0  0  0  0
   17.6553  -16.7671    0.0000 O   0  0  0  0  0  0  0  0  0  0  0  0
   18.3470  -18.8426    0.0000 C   0  0  0  0  0  0  0  0  0  0  0  0
   17.6275  -19.2389    0.0000 C   0  0  0  0  0  0  0  0  0  0  0  0
   19.0533  -19.2627    0.0000 O   0  0  0  0  0  0  0  0  0  0  0  0
   17.6123  -20.0631    0.0000 O   0  0  0  0  0  0  0  0  0  0  0  0
   19.7741  -18.8623    0.0000 C   0  0  0  0  0  0  0  0  0  0  0  0
  8  9  1  0  0  0  0
  9 11  1  0  0  0  0
  4  1  1  0  0  0  0
 10 11  2  0  0  0  0
 11 16  1  0  0  0  0
  2  3  1  0  0  0  0
 15 12  2  0  0  0  0
  5  6  1  0  0  0  0
 12 13  1  0  0  0  0
 13 10  1  0  0  0  0
  3  5  2  0  0  0  0
 13 14  2  0  0  0  0
 15 16  1  0  0  0  0
  6  7  1  0  0  0  0
  1  2  2  0  0  0  0
  5  8  1  0  0  0  0
 15 17  1  0  0  0  0
  7 10  1  0  0  0  0
 16 18  2  0  0  0  0
  6  4  2  0  0  0  0
 17 19  1  0  0  0  0
M  END

>  <ACTIVITY>
5.00
$$$$
58812

  Mrv0541 05041708512D          

 25 27  0  0  1  0            999 V2000
    0.0000   -0.4125    0.0000 C   0  0  0  0  0  0  0  0  0  0  0  0
   -0.7145   -0.8250    0.0000 C   0  0  0  0  0  0  0  0  0  0  0  0
    0.0000    0.4125    0.0000 C   0  0  0  0  0  0  0  0  0  0  0  0
    0.7145   -0.8250    0.0000 C   0  0  0  0  0  0  0  0  0  0  0  0
    0.7145    0.8250    0.0000 O   0  0  0  0  0  0  0  0  0  0  0  0
    1.4289   -0.4125    0.0000 C   0  0  0  0  0  0  0  0  0  0  0  0
   -1.4289   -0.4125    0.0000 C   0  0  0  0  0  0  0  0  0  0  0  0
    1.4289    0.4125    0.0000 C   0  0  1  0  0  0  0  0  0  0  0  0
   -1.4289    0.4125    0.0000 C   0  0  0  0  0  0  0  0  0  0  0  0
    0.7145   -1.6500    0.0000 O   0  0  0  0  0  0  0  0  0  0  0  0
   -0.7145   -1.6500    0.0000 O   0  0  0  0  0  0  0  0  0  0  0  0
    2.1434    0.8250    0.0000 C   0  0  0  0  0  0  0  0  0  0  0  0
   -2.1434    0.8250    0.0000 O   0  5  0  0  0  0  0  0  0  0  0  0
    2.1434    1.6500    0.0000 C   0  0  0  0  0  0  0  0  0  0  0  0
    2.8579    0.4125    0.0000 C   0  0  0  0  0  0  0  0  0  0  0  0
    2.8579    2.0625    0.0000 C   0  0  0  0  0  0  0  0  0  0  0  0
    3.5724    0.8250    0.0000 C   0  0  0  0  0  0  0  0  0  0  0  0
    3.5724    1.6500    0.0000 C   0  0  0  0  0  0  0  0  0  0  0  0
    4.2868    2.0625    0.0000 O   0  0  0  0  0  0  0  0  0  0  0  0
   -0.7145    0.8250    0.0000 C   0  0  0  0  0  0  0  0  0  0  0  0
   -0.7145    1.6500    0.0000 C   0  0  0  0  0  0  0  0  0  0  0  0
   -1.4290    2.0625    0.0000 C   0  0  0  0  0  0  0  0  0  0  0  0
   -0.7145    3.3000    0.0000 C   0  0  0  0  0  0  0  0  0  0  0  0
   -1.4290    2.8875    0.0000 C   0  0  0  0  0  0  0  0  0  0  0  0
   -2.1434    3.3000    0.0000 C   0  0  0  0  0  0  0  0  0  0  0  0
  1  2  2  0  0  0  0
  2 11  1  0  0  0  0
  1  3  1  0  0  0  0
  1  4  1  0  0  0  0
  4 10  2  0  0  0  0
  3  5  1  0  0  0  0
  3 20  2  0  0  0  0
  4  6  1  0  0  0  0
  2  7  1  0  0  0  0
  5  8  1  0  0  0  0
  6  8  1  0  0  0  0
  8 12  1  6  0  0  0
  7  9  2  0  0  0  0
 20  9  1  0  0  0  0
  9 13  1  0  0  0  0
 12 14  2  0  0  0  0
 12 15  1  0  0  0  0
 14 16  1  0  0  0  0
 15 17  2  0  0  0  0
 16 18  2  0  0  0  0
 17 18  1  0  0  0  0
 18 19  1  0  0  0  0
 20 21  1  0  0  0  0
 21 22  1  0  0  0  0
 22 24  2  0  0  0  0
 24 23  1  0  0  0  0
 24 25  1  0  0  0  0
M  CHG  1  13  -1
M  END

>  <ACTIVITY>
5.00
$$$$
65108

  Mrv0541 05041708512D          

 47 49  0  0  1  0            999 V2000
    8.5478   -5.8040    0.0000 O   0  0  0  0  0  0  0  0  0  0  0  0
    9.2489   -5.3914    0.0000 C   0  0  1  0  0  0  0  0  0  0  0  0
    9.9915   -5.8452    0.0000 C   0  0  1  0  0  0  0  0  0  0  0  0
   10.6927   -5.4327    0.0000 C   0  0  0  0  0  0  0  0  0  0  0  0
   10.6927   -4.6077    0.0000 C   0  0  1  0  0  0  0  0  0  0  0  0
    9.9915   -4.1952    0.0000 C   0  0  2  0  0  0  0  0  0  0  0  0
    9.2489   -4.6077    0.0000 C   0  0  2  0  0  0  0  0  0  0  0  0
    9.9915   -6.6702    0.0000 N   0  0  0  0  0  0  0  0  0  0  0  0
    8.5478   -4.1952    0.0000 O   0  0  0  0  0  0  0  0  0  0  0  0
   11.4352   -4.1952    0.0000 N   0  0  0  0  0  0  0  0  0  0  0  0
    9.9915   -3.3703    0.0000 O   0  0  0  0  0  0  0  0  0  0  0  0
   10.6927   -2.9578    0.0000 C   0  0  1  0  0  0  0  0  0  0  0  0
   11.3940   -3.3703    0.0000 O   0  0  0  0  0  0  0  0  0  0  0  0
   12.0952   -2.9578    0.0000 C   0  0  1  0  0  0  0  0  0  0  0  0
   12.0952   -2.1328    0.0000 C   0  0  2  0  0  0  0  0  0  0  0  0
   11.3940   -1.7203    0.0000 C   0  0  1  0  0  0  0  0  0  0  0  0
   10.6927   -2.1328    0.0000 C   0  0  1  0  0  0  0  0  0  0  0  0
   12.8376   -3.3703    0.0000 C   0  0  0  0  0  0  0  0  0  0  0  0
    9.9502   -1.7203    0.0000 N   0  0  0  0  0  0  0  0  0  0  0  0
   11.3940   -0.8952    0.0000 O   0  0  0  0  0  0  0  0  0  0  0  0
   12.7964   -1.7203    0.0000 O   0  0  0  0  0  0  0  0  0  0  0  0
   12.8376   -4.1952    0.0000 N   0  0  0  0  0  0  0  0  0  0  0  0
    6.6504   -5.2265    0.0000 C   0  0  1  0  0  0  0  0  0  0  0  0
    7.4752   -5.2265    0.0000 C   0  0  2  0  0  0  0  0  0  0  0  0
    7.7227   -4.4427    0.0000 C   0  0  1  0  0  0  0  0  0  0  0  0
    7.0628   -3.9478    0.0000 O   0  0  0  0  0  0  0  0  0  0  0  0
    6.4029   -4.4427    0.0000 C   0  0  2  0  0  0  0  0  0  0  0  0
    5.6191   -4.1952    0.0000 C   0  0  0  0  0  0  0  0  0  0  0  0
    5.0004   -4.7315    0.0000 O   0  0  0  0  0  0  0  0  0  0  0  0
    6.1554   -5.8864    0.0000 O   0  0  0  0  0  0  0  0  0  0  0  0
    7.9703   -5.8864    0.0000 O   0  0  0  0  0  0  0  0  0  0  0  0
   10.7115   -7.0872    0.0000 C   0  0  0  0  0  0  0  0  0  0  0  0
   11.4262   -6.6746    0.0000 C   0  0  2  0  0  0  0  0  0  0  0  0
   12.1409   -7.0872    0.0000 C   0  0  0  0  0  0  0  0  0  0  0  0
   12.8555   -6.6746    0.0000 C   0  0  0  0  0  0  0  0  0  0  0  0
   13.5703   -7.0872    0.0000 N   0  0  0  0  0  0  0  0  0  0  0  0
   10.7110   -7.9124    0.0000 O   0  0  0  0  0  0  0  0  0  0  0  0
   11.4262   -5.8495    0.0000 O   0  0  0  0  0  0  0  0  0  0  0  0
   14.3056   -6.6773    0.0000 C   0  0  0  0  0  0  0  0  0  0  0  0
   15.0204   -7.0900    0.0000 C   0  0  0  0  0  0  0  0  0  0  0  0
   15.7352   -6.6773    0.0000 C   0  0  0  0  0  0  0  0  0  0  0  0
   16.4499   -7.0900    0.0000 C   0  0  1  0  0  0  0  0  0  0  0  0
   17.1648   -6.6773    0.0000 C   0  0  0  0  0  0  0  0  0  0  0  0
   17.8796   -7.0900    0.0000 O   0  0  0  0  0  0  0  0  0  0  0  0
   14.3117   -5.8521    0.0000 O   0  0  0  0  0  0  0  0  0  0  0  0
   16.4499   -7.9153    0.0000 N   0  0  0  0  0  0  0  0  0  0  0  0
   17.1648   -5.8520    0.0000 O   0  0  0  0  0  0  0  0  0  0  0  0
  2  1  1  6  0  0  0
  2  3  1  0  0  0  0
  3  4  1  0  0  0  0
  4  5  1  0  0  0  0
  5  6  1  0  0  0  0
  6  7  1  0  0  0  0
  2  7  1  0  0  0  0
  3  8  1  1  0  0  0
  7  9  1  1  0  0  0
  5 10  1  1  0  0  0
  6 11  1  6  0  0  0
 12 11  1  6  0  0  0
 12 13  1  0  0  0  0
 13 14  1  0  0  0  0
 14 15  1  0  0  0  0
 15 16  1  0  0  0  0
 16 17  1  0  0  0  0
 12 17  1  0  0  0  0
 14 18  1  1  0  0  0
 17 19  1  6  0  0  0
 16 20  1  1  0  0  0
 15 21  1  6  0  0  0
 18 22  1  0  0  0  0
 23 24  1  0  0  0  0
 24 25  1  0  0  0  0
 25 26  1  0  0  0  0
 26 27  1  0  0  0  0
 23 27  1  0  0  0  0
 27 28  1  1  0  0  0
 28 29  1  0  0  0  0
 23 30  1  6  0  0  0
 24 31  1  6  0  0  0
 25  9  1  1  0  0  0
  8 32  1  0  0  0  0
 32 33  1  0  0  0  0
 33 34  1  0  0  0  0
 34 35  1  0  0  0  0
 35 36  1  0  0  0  0
 32 37  2  0  0  0  0
 33 38  1  1  0  0  0
 36 39  1  0  0  0  0
 39 40  1  0  0  0  0
 40 41  1  0  0  0  0
 41 42  1  0  0  0  0
 42 43  1  0  0  0  0
 43 44  1  0  0  0  0
 39 45  2  0  0  0  0
 42 46  1  1  0  0  0
 43 47  2  0  0  0  0
M  END

>  <ACTIVITY>
5.00
$$$$
65470

  Mrv0541 05041708512D          

 22 24  0  0  0  0            999 V2000
   -2.6323  -17.1430    0.0000 C   0  0  0  0  0  0  0  0  0  0  0  0
   -3.0193  -17.8716    0.0000 C   0  0  0  0  0  0  0  0  0  0  0  0
   -2.5820  -18.5689    0.0000 C   0  0  0  0  0  0  0  0  0  0  0  0
   -1.8144  -17.1150    0.0000 C   0  0  0  0  0  0  0  0  0  0  0  0
   -1.7574  -18.5332    0.0000 C   0  0  0  0  0  0  0  0  0  0  0  0
   -1.3729  -17.8057    0.0000 C   0  0  0  0  0  0  0  0  0  0  0  0
   -0.5609  -17.6520    0.0000 O   0  0  0  0  0  0  0  0  0  0  0  0
   -1.4232  -19.2919    0.0000 C   0  0  0  0  0  0  0  0  0  0  0  0
   -0.6235  -19.5049    0.0000 C   0  0  0  0  0  0  0  0  0  0  0  0
    0.0653  -18.1785    0.0000 C   0  0  0  0  0  0  0  0  0  0  0  0
    0.0400  -19.0080    0.0000 C   0  0  0  0  0  0  0  0  0  0  0  0
    1.4937  -18.2233    0.0000 C   0  0  0  0  0  0  0  0  0  0  0  0
    0.7910  -17.7904    0.0000 C   0  0  0  0  0  0  0  0  0  0  0  0
    0.8152  -16.9700    0.0000 O   0  0  0  0  0  0  0  0  0  0  0  0
    2.2190  -17.8306    0.0000 C   0  0  0  0  0  0  0  0  0  0  0  0
    1.4697  -19.0549    0.0000 C   0  0  0  0  0  0  0  0  0  0  0  0
    0.7438  -19.4395    0.0000 C   0  0  0  0  0  0  0  0  0  0  0  0
   -2.9646  -19.2971    0.0000 O   0  0  0  0  0  0  0  0  0  0  0  0
    2.1692  -19.4866    0.0000 O   0  0  0  0  0  0  0  0  0  0  0  0
    1.5372  -16.5761    0.0000 C   0  0  0  0  0  0  0  0  0  0  0  0
    0.7171  -20.2599    0.0000 O   0  0  0  0  0  0  0  0  0  0  0  0
   -0.0061  -20.6517    0.0000 C   0  0  0  0  0  0  0  0  0  0  0  0
 10 11  2  0  0  0  0
 11 17  1  0  0  0  0
  2  3  1  0  0  0  0
 16 12  1  0  0  0  0
  5  6  1  0  0  0  0
 12 13  2  0  0  0  0
 13 10  1  0  0  0  0
  3  5  2  0  0  0  0
 13 14  1  0  0  0  0
  6  7  1  0  0  0  0
 12 15  1  0  0  0  0
 16 17  2  0  0  0  0
  1  2  2  0  0  0  0
  5  8  1  0  0  0  0
  7 10  1  0  0  0  0
  3 18  1  0  0  0  0
  6  4  2  0  0  0  0
 16 19  1  0  0  0  0
  8  9  1  0  0  0  0
 14 20  1  0  0  0  0
  9 11  1  0  0  0  0
 17 21  1  0  0  0  0
  4  1  1  0  0  0  0
 21 22  1  0  0  0  0
M  END

>  <ACTIVITY>
5.00
$$$$
65471

  Mrv0541 05041708512D          

 21 23  0  0  0  0            999 V2000
    5.0918  -17.1792    0.0000 C   0  0  0  0  0  0  0  0  0  0  0  0
    4.7140  -17.9121    0.0000 C   0  0  0  0  0  0  0  0  0  0  0  0
    5.1596  -18.6037    0.0000 C   0  0  0  0  0  0  0  0  0  0  0  0
    5.9089  -17.1411    0.0000 C   0  0  0  0  0  0  0  0  0  0  0  0
    5.9833  -18.5578    0.0000 C   0  0  0  0  0  0  0  0  0  0  0  0
    6.3586  -17.8260    0.0000 C   0  0  0  0  0  0  0  0  0  0  0  0
    7.1685  -17.6624    0.0000 O   0  0  0  0  0  0  0  0  0  0  0  0
    6.3247  -19.3158    0.0000 C   0  0  0  0  0  0  0  0  0  0  0  0
    7.1287  -19.5151    0.0000 C   0  0  0  0  0  0  0  0  0  0  0  0
    7.7989  -18.1846    0.0000 C   0  0  0  0  0  0  0  0  0  0  0  0
    7.7856  -19.0102    0.0000 C   0  0  0  0  0  0  0  0  0  0  0  0
    9.2290  -18.2081    0.0000 C   0  0  0  0  0  0  0  0  0  0  0  0
    8.5213  -17.7841    0.0000 C   0  0  0  0  0  0  0  0  0  0  0  0
    8.5317  -16.9619    0.0000 O   0  0  0  0  0  0  0  0  0  0  0  0
    9.9454  -17.8048    0.0000 C   0  0  0  0  0  0  0  0  0  0  0  0
    9.2152  -19.0396    0.0000 C   0  0  0  0  0  0  0  0  0  0  0  0
    8.4945  -19.4329    0.0000 C   0  0  0  0  0  0  0  0  0  0  0  0
    9.9197  -19.4624    0.0000 O   0  0  0  0  0  0  0  0  0  0  0  0
    8.4759  -20.2569    0.0000 O   0  0  0  0  0  0  0  0  0  0  0  0
    3.8910  -17.9522    0.0000 O   0  0  0  0  0  0  0  0  0  0  0  0
   10.6419  -19.0648    0.0000 C   0  0  0  0  0  0  0  0  0  0  0  0
  4  1  1  0  0  0  0
 10 11  2  0  0  0  0
 11 17  1  0  0  0  0
  2  3  1  0  0  0  0
 16 12  2  0  0  0  0
  5  6  1  0  0  0  0
 12 13  1  0  0  0  0
 13 10  1  0  0  0  0
  3  5  2  0  0  0  0
 13 14  2  0  0  0  0
  6  7  1  0  0  0  0
 12 15  1  0  0  0  0
 16 17  1  0  0  0  0
  1  2  2  0  0  0  0
  5  8  1  0  0  0  0
  7 10  1  0  0  0  0
 16 18  1  0  0  0  0
  6  4  2  0  0  0  0
 17 19  2  0  0  0  0
  8  9  1  0  0  0  0
  2 20  1  0  0  0  0
  9 11  1  0  0  0  0
 18 21  1  0  0  0  0
M  END

>  <ACTIVITY>
5.00
$$$$
88189

  Mrv0541 05041708512D          

 24 26  0  0  0  0            999 V2000
    8.5715   -3.5836    0.0000 C   0  0  0  0  0  0  0  0  0  0  0  0
    7.8571   -3.9961    0.0000 C   0  0  0  0  0  0  0  0  0  0  0  0
    7.1425   -3.5836    0.0000 C   0  0  0  0  0  0  0  0  0  0  0  0
    7.1425   -2.7586    0.0000 C   0  0  0  0  0  0  0  0  0  0  0  0
    7.8571   -2.3462    0.0000 C   0  0  0  0  0  0  0  0  0  0  0  0
    8.5715   -2.7586    0.0000 C   0  0  0  0  0  0  0  0  0  0  0  0
    9.2860   -2.3462    0.0000 O   0  3  0  0  0  0  0  0  0  0  0  0
   10.0005   -2.7586    0.0000 C   0  0  0  0  0  0  0  0  0  0  0  0
   10.0005   -3.5836    0.0000 C   0  0  0  0  0  0  0  0  0  0  0  0
    9.2860   -3.9961    0.0000 N   0  0  0  0  0  0  0  0  0  0  0  0
   10.7149   -3.9961    0.0000 C   0  0  0  0  0  0  0  0  0  0  0  0
   10.7149   -2.3462    0.0000 C   0  0  0  0  0  0  0  0  0  0  0  0
   11.4294   -2.7586    0.0000 C   0  0  0  0  0  0  0  0  0  0  0  0
   11.4294   -3.5836    0.0000 C   0  0  0  0  0  0  0  0  0  0  0  0
    6.4280   -2.3462    0.0000 N   0  0  0  0  0  0  0  0  0  0  0  0
    5.7135   -2.7586    0.0000 C   0  0  0  0  0  0  0  0  0  0  0  0
    5.7135   -3.5836    0.0000 C   0  0  0  0  0  0  0  0  0  0  0  0
    6.4280   -1.5211    0.0000 C   0  0  0  0  0  0  0  0  0  0  0  0
    5.7135   -1.1086    0.0000 C   0  0  0  0  0  0  0  0  0  0  0  0
   10.7148   -4.8211    0.0000 C   0  0  0  0  0  0  0  0  0  0  0  0
   11.4293   -5.2337    0.0000 O   0  0  0  0  0  0  0  0  0  0  0  0
   10.0003   -5.2336    0.0000 N   0  0  0  0  0  0  0  0  0  0  0  0
   10.7149   -1.5212    0.0000 O   0  0  0  0  0  0  0  0  0  0  0  0
   12.1438   -2.3461    0.0000 O   0  0  0  0  0  0  0  0  0  0  0  0
  1  2  1  0  0  0  0
  1  6  1  0  0  0  0
  1 10  2  0  0  0  0
  2  3  2  0  0  0  0
  3  4  1  0  0  0  0
  4  5  2  0  0  0  0
  5  6  1  0  0  0  0
  6  7  2  0  0  0  0
  7  8  1  0  0  0  0
  9 10  1  0  0  0  0
 11  9  1  0  0  0  0
  8  9  2  0  0  0  0
  8 12  1  0  0  0  0
 12 13  2  0  0  0  0
 13 14  1  0  0  0  0
 11 14  2  0  0  0  0
  4 15  1  0  0  0  0
 15 16  1  0  0  0  0
 16 17  1  0  0  0  0
 15 18  1  0  0  0  0
 18 19  1  0  0  0  0
 21 20  2  0  0  0  0
 22 20  1  0  0  0  0
 11 20  1  0  0  0  0
 12 23  1  0  0  0  0
 13 24  1  0  0  0  0
M  CHG  1   7   1
M  END

>  <ACTIVITY>
5.00
$$$$
72944

  Mrv0541 05041708512D          

 33 35  0  0  0  0            999 V2000
    0.7145   -0.4125    0.0000 C   0  0  2  0  0  0  0  0  0  0  0  0
    0.0000    0.8250    0.0000 C   0  0  1  0  0  0  0  0  0  0  0  0
    0.0000   -0.8250    0.0000 C   0  0  1  0  0  0  0  0  0  0  0  0
   -0.7145   -0.4125    0.0000 C   0  0  2  0  0  0  0  0  0  0  0  0
   -0.7145    0.4125    0.0000 C   0  0  2  0  0  0  0  0  0  0  0  0
   -0.7144   -2.0625    0.0000 C   0  0  2  0  0  0  0  0  0  0  0  0
   -0.7144   -2.8875    0.0000 C   0  0  1  0  0  0  0  0  0  0  0  0
   -1.4289   -3.3000    0.0000 C   0  0  2  0  0  0  0  0  0  0  0  0
   -2.1434   -2.8875    0.0000 C   0  0  1  0  0  0  0  0  0  0  0  0
   -2.1434   -2.0625    0.0000 C   0  0  2  0  0  0  0  0  0  0  0  0
   -1.4289   -1.6500    0.0000 O   0  0  0  0  0  0  0  0  0  0  0  0
   -2.8578   -3.3000    0.0000 O   0  0  0  0  0  0  0  0  0  0  0  0
   -2.8578   -1.6500    0.0000 C   0  0  0  0  0  0  0  0  0  0  0  0
   -1.4289   -4.1250    0.0000 O   0  0  0  0  0  0  0  0  0  0  0  0
   -3.5723   -2.0625    0.0000 O   0  0  0  0  0  0  0  0  0  0  0  0
    0.0001    1.6500    0.0000 N   0  3  0  0  0  0  0  0  0  0  0  0
    1.4290   -0.8250    0.0000 N   0  3  0  0  0  0  0  0  0  0  0  0
   -1.4289   -0.8250    0.0000 O   0  0  0  0  0  0  0  0  0  0  0  0
    0.0001   -1.6500    0.0000 O   0  0  0  0  0  0  0  0  0  0  0  0
   -1.4289    0.8250    0.0000 O   0  0  0  0  0  0  0  0  0  0  0  0
   -1.4289    1.6500    0.0000 C   0  0  1  0  0  0  0  0  0  0  0  0
   -0.7144    2.0625    0.0000 O   0  0  0  0  0  0  0  0  0  0  0  0
   -0.7144    2.8875    0.0000 C   0  0  1  0  0  0  0  0  0  0  0  0
   -1.4289    3.3000    0.0000 C   0  0  2  0  0  0  0  0  0  0  0  0
   -2.1434    2.8875    0.0000 C   0  0  1  0  0  0  0  0  0  0  0  0
   -2.1434    2.0625    0.0000 C   0  0  1  0  0  0  0  0  0  0  0  0
    0.0001    3.3000    0.0000 C   0  0  0  0  0  0  0  0  0  0  0  0
    0.7145    2.8875    0.0000 N   0  3  0  0  0  0  0  0  0  0  0  0
   -2.8578    3.3000    0.0000 O   0  0  0  0  0  0  0  0  0  0  0  0
   -1.4289    4.1250    0.0000 O   0  0  0  0  0  0  0  0  0  0  0  0
    0.7145    0.4125    0.0000 C   0  0  0  0  0  0  0  0  0  0  0  0
    0.0001   -3.3000    0.0000 O   0  0  0  0  0  0  0  0  0  0  0  0
   -2.8579    1.6500    0.0000 N   0  3  0  0  0  0  0  0  0  0  0  0
 31  1  1  0  0  0  0
  1 17  1  1  0  0  0
  2 31  1  0  0  0  0
  2 16  1  1  0  0  0
  1  3  1  0  0  0  0
  3 19  1  6  0  0  0
  3  4  1  0  0  0  0
  4 18  1  1  0  0  0
  4  5  1  0  0  0  0
  5  2  1  0  0  0  0
  5 20  1  6  0  0  0
  6 19  1  6  0  0  0
  6  7  1  0  0  0  0
 11  6  1  0  0  0  0
  7  8  1  0  0  0  0
  7 32  1  6  0  0  0
  8  9  1  0  0  0  0
  8 14  1  1  0  0  0
  9 10  1  0  0  0  0
  9 12  1  6  0  0  0
 10 11  1  0  0  0  0
 10 13  1  1  0  0  0
 13 15  1  0  0  0  0
 21 20  1  6  0  0  0
 21 22  1  0  0  0  0
 26 21  1  0  0  0  0
 22 23  1  0  0  0  0
 23 24  1  0  0  0  0
 23 27  1  1  0  0  0
 24 25  1  0  0  0  0
 24 30  1  6  0  0  0
 25 26  1  0  0  0  0
 25 29  1  1  0  0  0
 26 33  1  6  0  0  0
 27 28  1  0  0  0  0
M  CHG  4  16   1  17   1  28   1  33   1
M  END

>  <ACTIVITY>
5.00
$$$$
75001

  Mrv0541 05041708512D          

 51 53  0  0  1  0            999 V2000
    5.2856   -8.7988    0.0000 N   0  0  0  0  0  0  0  0  0  0  0  0
    3.8567   -7.8741    0.0000 R   0  0  0  0  0  0  0  0  0  0  0  0
    4.5712   -7.4617    0.0000 C   0  0  2  0  0  0  0  0  0  0  0  0
    5.2856   -7.8742    0.0000 C   0  0  2  0  0  0  0  0  0  0  0  0
    6.0000   -7.4617    0.0000 C   0  0  0  0  0  0  0  0  0  0  0  0
    6.7154   -7.9457    0.0000 O   0  0  0  0  0  0  0  0  0  0  0  0
    4.5712   -6.6367    0.0000 O   0  0  0  0  0  0  0  0  0  0  0  0
    7.5271   -7.9390    0.0000 P   0  0  0  0  0  0  0  0  0  0  0  0
    7.5271   -7.1140    0.0000 O   0  5  0  0  0  0  0  0  0  0  0  0
    7.5271   -8.7640    0.0000 O   0  0  0  0  0  0  0  0  0  0  0  0
    9.7811   -7.9390    0.0000 C   0  0  1  0  0  0  0  0  0  0  0  0
    9.0667   -8.3519    0.0000 C   0  0  1  0  0  0  0  0  0  0  0  0
    9.0667   -9.1769    0.0000 C   0  0  1  0  0  0  0  0  0  0  0  0
    9.7811   -9.5894    0.0000 C   0  0  1  0  0  0  0  0  0  0  0  0
   10.4957   -9.1769    0.0000 C   0  0  2  0  0  0  0  0  0  0  0  0
   10.4957   -8.3519    0.0000 C   0  0  2  0  0  0  0  0  0  0  0  0
    8.3523   -7.9390    0.0000 O   0  0  0  0  0  0  0  0  0  0  0  0
    9.7811   -7.1140    0.0000 O   0  0  0  0  0  0  0  0  0  0  0  0
   11.2101   -9.5894    0.0000 O   0  0  0  0  0  0  0  0  0  0  0  0
   11.2101   -7.9390    0.0000 O   0  0  0  0  0  0  0  0  0  0  0  0
    8.3523   -9.5894    0.0000 O   0  0  0  0  0  0  0  0  0  0  0  0
    9.7811  -10.4144    0.0000 O   0  0  0  0  0  0  0  0  0  0  0  0
   10.4957   -6.7015    0.0000 C   0  0  0  0  0  0  0  0  0  0  0  0
   11.2101   -5.4640    0.0000 C   0  0  2  0  0  0  0  0  0  0  0  0
   10.4957   -5.8765    0.0000 C   0  0  2  0  0  0  0  0  0  0  0  0
   11.2101   -7.1140    0.0000 O   0  0  0  0  0  0  0  0  0  0  0  0
   11.9245   -6.7015    0.0000 C   0  0  1  0  0  0  0  0  0  0  0  0
   11.9245   -5.8765    0.0000 C   0  0  1  0  0  0  0  0  0  0  0  0
   12.6392   -7.1140    0.0000 C   0  0  0  0  0  0  0  0  0  0  0  0
   11.2101   -4.6390    0.0000 O   0  0  0  0  0  0  0  0  0  0  0  0
    9.7811   -5.4640    0.0000 O   0  0  0  0  0  0  0  0  0  0  0  0
   12.6392   -5.4640    0.0000 O   0  0  0  0  0  0  0  0  0  0  0  0
   13.3536   -6.7015    0.0000 O   0  0  0  0  0  0  0  0  0  0  0  0
   14.2090   -6.6930    0.0000 P   0  0  0  0  0  0  0  0  0  0  0  0
   14.2090   -5.8881    0.0000 O   0  5  0  0  0  0  0  0  0  0  0  0
   14.2090   -7.4984    0.0000 O   0  0  0  0  0  0  0  0  0  0  0  0
   15.0141   -6.6930    0.0000 O   0  0  0  0  0  0  0  0  0  0  0  0
   17.1576   -7.1057    0.0000 C   0  0  1  0  0  0  0  0  0  0  0  0
   17.1576   -7.9307    0.0000 C   0  0  1  0  0  0  0  0  0  0  0  0
   16.4431   -6.6930    0.0000 C   0  0  2  0  0  0  0  0  0  0  0  0
   16.4431   -8.3434    0.0000 C   0  0  2  0  0  0  0  0  0  0  0  0
   15.7287   -7.1057    0.0000 C   0  0  1  0  0  0  0  0  0  0  0  0
   15.7287   -7.9307    0.0000 C   0  0  2  0  0  0  0  0  0  0  0  0
   16.4431   -5.8680    0.0000 O   0  0  0  0  0  0  0  0  0  0  0  0
   15.0141   -8.3434    0.0000 O   0  0  0  0  0  0  0  0  0  0  0  0
   16.4431   -9.1683    0.0000 O   0  0  0  0  0  0  0  0  0  0  0  0
   17.8720   -8.3434    0.0000 O   0  0  0  0  0  0  0  0  0  0  0  0
   17.8720   -6.6930    0.0000 O   0  0  0  0  0  0  0  0  0  0  0  0
    5.2856   -9.6238    0.0000 C   0  0  0  0  0  0  0  0  0  0  0  0
    4.5711  -10.0363    0.0000 R   0  0  0  0  0  0  0  0  0  0  0  0
    6.0001  -10.0363    0.0000 O   0  0  0  0  0  0  0  0  0  0  0  0
  2  3  1  0  0  0  0
  3  4  1  0  0  0  0
  4  5  1  0  0  0  0
  5  6  1  0  0  0  0
  4  1  1  6  0  0  0
  3  7  1  1  0  0  0
  6  8  1  0  0  0  0
  8  9  1  0  0  0  0
  8 10  2  0  0  0  0
 11 12  1  0  0  0  0
 12 13  1  0  0  0  0
 13 14  1  0  0  0  0
 14 15  1  0  0  0  0
 15 16  1  0  0  0  0
 11 16  1  0  0  0  0
 12 17  1  1  0  0  0
  8 17  1  0  0  0  0
 11 18  1  6  0  0  0
 15 19  1  6  0  0  0
 16 20  1  1  0  0  0
 13 21  1  1  0  0  0
 14 22  1  1  0  0  0
 18 23  1  0  0  0  0
 25 23  1  0  0  0  0
 23 26  1  0  0  0  0
 24 25  1  0  0  0  0
 26 27  1  0  0  0  0
 27 28  1  0  0  0  0
 24 28  1  0  0  0  0
 27 29  1  1  0  0  0
 24 30  1  1  0  0  0
 25 31  1  1  0  0  0
 28 32  1  6  0  0  0
 29 33  1  0  0  0  0
 33 34  1  0  0  0  0
 34 35  1  0  0  0  0
 34 36  2  0  0  0  0
 34 37  1  0  0  0  0
 39 38  1  0  0  0  0
 40 38  1  0  0  0  0
 41 39  1  0  0  0  0
 42 40  1  0  0  0  0
 43 41  1  0  0  0  0
 43 42  1  0  0  0  0
 40 44  1  6  0  0  0
 42 37  1  1  0  0  0
 43 45  1  1  0  0  0
 41 46  1  1  0  0  0
 39 47  1  6  0  0  0
 38 48  1  1  0  0  0
  1 49  1  0  0  0  0
 49 50  1  0  0  0  0
 49 51  2  0  0  0  0
M  CHG  2   9  -1  35  -1
M  END

>  <ACTIVITY>
5.00
$$$$
75002

  Mrv0541 05041708512D          

 51 53  0  0  1  0            999 V2000
    5.2856   -8.7988    0.0000 N   0  0  0  0  0  0  0  0  0  0  0  0
    3.8567   -7.8741    0.0000 R   0  0  0  0  0  0  0  0  0  0  0  0
    4.5712   -7.4617    0.0000 C   0  0  2  0  0  0  0  0  0  0  0  0
    5.2856   -7.8742    0.0000 C   0  0  2  0  0  0  0  0  0  0  0  0
    6.0000   -7.4617    0.0000 C   0  0  0  0  0  0  0  0  0  0  0  0
    6.7154   -7.9457    0.0000 O   0  0  0  0  0  0  0  0  0  0  0  0
    4.5712   -6.6367    0.0000 O   0  0  0  0  0  0  0  0  0  0  0  0
    7.5271   -7.9390    0.0000 P   0  0  0  0  0  0  0  0  0  0  0  0
    7.5271   -7.1140    0.0000 O   0  5  0  0  0  0  0  0  0  0  0  0
    7.5271   -8.7640    0.0000 O   0  0  0  0  0  0  0  0  0  0  0  0
    9.7811   -7.9390    0.0000 C   0  0  1  0  0  0  0  0  0  0  0  0
    9.0667   -8.3519    0.0000 C   0  0  1  0  0  0  0  0  0  0  0  0
    9.0667   -9.1769    0.0000 C   0  0  1  0  0  0  0  0  0  0  0  0
    9.7811   -9.5894    0.0000 C   0  0  1  0  0  0  0  0  0  0  0  0
   10.4957   -9.1769    0.0000 C   0  0  2  0  0  0  0  0  0  0  0  0
   10.4957   -8.3519    0.0000 C   0  0  2  0  0  0  0  0  0  0  0  0
    8.3523   -7.9390    0.0000 O   0  0  0  0  0  0  0  0  0  0  0  0
    9.7811   -7.1140    0.0000 O   0  0  0  0  0  0  0  0  0  0  0  0
   11.2101   -9.5894    0.0000 O   0  0  0  0  0  0  0  0  0  0  0  0
   11.2101   -7.9390    0.0000 O   0  0  0  0  0  0  0  0  0  0  0  0
    8.3523   -9.5894    0.0000 O   0  0  0  0  0  0  0  0  0  0  0  0
    9.7811  -10.4144    0.0000 O   0  0  0  0  0  0  0  0  0  0  0  0
   10.4957   -6.7015    0.0000 C   0  0  0  0  0  0  0  0  0  0  0  0
   11.2101   -5.4640    0.0000 C   0  0  2  0  0  0  0  0  0  0  0  0
   10.4957   -5.8765    0.0000 C   0  0  2  0  0  0  0  0  0  0  0  0
   11.2101   -7.1140    0.0000 O   0  0  0  0  0  0  0  0  0  0  0  0
   11.9245   -6.7015    0.0000 C   0  0  1  0  0  0  0  0  0  0  0  0
   11.9245   -5.8765    0.0000 C   0  0  1  0  0  0  0  0  0  0  0  0
   12.6392   -7.1140    0.0000 C   0  0  0  0  0  0  0  0  0  0  0  0
   11.2101   -4.6390    0.0000 O   0  0  0  0  0  0  0  0  0  0  0  0
    9.7811   -5.4640    0.0000 O   0  0  0  0  0  0  0  0  0  0  0  0
   12.6392   -5.4640    0.0000 O   0  0  0  0  0  0  0  0  0  0  0  0
   13.3536   -6.7015    0.0000 O   0  0  0  0  0  0  0  0  0  0  0  0
   14.2090   -6.6930    0.0000 P   0  0  0  0  0  0  0  0  0  0  0  0
   14.2090   -5.8881    0.0000 O   0  5  0  0  0  0  0  0  0  0  0  0
   14.2090   -7.4984    0.0000 O   0  0  0  0  0  0  0  0  0  0  0  0
   15.0141   -6.6930    0.0000 O   0  0  0  0  0  0  0  0  0  0  0  0
   17.1576   -7.1057    0.0000 C   0  0  1  0  0  0  0  0  0  0  0  0
   17.1576   -7.9307    0.0000 C   0  0  1  0  0  0  0  0  0  0  0  0
   16.4431   -6.6930    0.0000 C   0  0  2  0  0  0  0  0  0  0  0  0
   16.4431   -8.3434    0.0000 C   0  0  2  0  0  0  0  0  0  0  0  0
   15.7287   -7.1057    0.0000 C   0  0  1  0  0  0  0  0  0  0  0  0
   15.7287   -7.9307    0.0000 C   0  0  2  0  0  0  0  0  0  0  0  0
   16.4431   -5.8680    0.0000 O   0  0  0  0  0  0  0  0  0  0  0  0
   15.0141   -8.3434    0.0000 O   0  0  0  0  0  0  0  0  0  0  0  0
   16.4431   -9.1683    0.0000 O   0  0  0  0  0  0  0  0  0  0  0  0
   17.8720   -8.3434    0.0000 O   0  0  0  0  0  0  0  0  0  0  0  0
   17.8720   -6.6930    0.0000 O   0  0  0  0  0  0  0  0  0  0  0  0
    5.2856   -9.6238    0.0000 C   0  0  0  0  0  0  0  0  0  0  0  0
    4.5711  -10.0363    0.0000 R   0  0  0  0  0  0  0  0  0  0  0  0
    6.0001  -10.0363    0.0000 O   0  0  0  0  0  0  0  0  0  0  0  0
  2  3  1  0  0  0  0
  3  4  1  0  0  0  0
  4  5  1  0  0  0  0
  5  6  1  0  0  0  0
  4  1  1  6  0  0  0
  3  7  1  1  0  0  0
  6  8  1  0  0  0  0
  8  9  1  0  0  0  0
  8 10  2  0  0  0  0
 11 12  1  0  0  0  0
 12 13  1  0  0  0  0
 13 14  1  0  0  0  0
 14 15  1  0  0  0  0
 15 16  1  0  0  0  0
 11 16  1  0  0  0  0
 12 17  1  1  0  0  0
  8 17  1  0  0  0  0
 11 18  1  6  0  0  0
 15 19  1  6  0  0  0
 16 20  1  1  0  0  0
 13 21  1  1  0  0  0
 14 22  1  1  0  0  0
 18 23  1  0  0  0  0
 25 23  1  0  0  0  0
 23 26  1  0  0  0  0
 24 25  1  0  0  0  0
 26 27  1  0  0  0  0
 27 28  1  0  0  0  0
 24 28  1  0  0  0  0
 27 29  1  1  0  0  0
 24 30  1  1  0  0  0
 25 31  1  1  0  0  0
 28 32  1  6  0  0  0
 29 33  1  0  0  0  0
 33 34  1  0  0  0  0
 34 35  1  0  0  0  0
 34 36  2  0  0  0  0
 34 37  1  0  0  0  0
 39 38  1  0  0  0  0
 40 38  1  0  0  0  0
 41 39  1  0  0  0  0
 42 40  1  0  0  0  0
 43 41  1  0  0  0  0
 43 42  1  0  0  0  0
 40 44  1  6  0  0  0
 42 37  1  1  0  0  0
 43 45  1  1  0  0  0
 41 46  1  1  0  0  0
 39 47  1  6  0  0  0
 38 48  1  1  0  0  0
  1 49  1  0  0  0  0
 49 50  1  0  0  0  0
 49 51  2  0  0  0  0
M  CHG  2   9  -1  35  -1
M  END

>  <ACTIVITY>
5.00
$$$$
75019

  Mrv0541 05041708512D          

 51 53  0  0  1  0            999 V2000
    5.2856   -8.7988    0.0000 N   0  0  0  0  0  0  0  0  0  0  0  0
    3.8567   -7.8741    0.0000 R   0  0  0  0  0  0  0  0  0  0  0  0
    4.5712   -7.4617    0.0000 C   0  0  2  0  0  0  0  0  0  0  0  0
    5.2856   -7.8742    0.0000 C   0  0  2  0  0  0  0  0  0  0  0  0
    6.0000   -7.4617    0.0000 C   0  0  0  0  0  0  0  0  0  0  0  0
    6.7154   -7.9457    0.0000 O   0  0  0  0  0  0  0  0  0  0  0  0
    4.5712   -6.6367    0.0000 O   0  0  0  0  0  0  0  0  0  0  0  0
    7.5271   -7.9390    0.0000 P   0  0  0  0  0  0  0  0  0  0  0  0
    7.5271   -7.1140    0.0000 O   0  5  0  0  0  0  0  0  0  0  0  0
    7.5271   -8.7640    0.0000 O   0  0  0  0  0  0  0  0  0  0  0  0
    9.7811   -7.9390    0.0000 C   0  0  1  0  0  0  0  0  0  0  0  0
    9.0667   -8.3519    0.0000 C   0  0  1  0  0  0  0  0  0  0  0  0
    9.0667   -9.1769    0.0000 C   0  0  1  0  0  0  0  0  0  0  0  0
    9.7811   -9.5894    0.0000 C   0  0  1  0  0  0  0  0  0  0  0  0
   10.4957   -9.1769    0.0000 C   0  0  2  0  0  0  0  0  0  0  0  0
   10.4957   -8.3519    0.0000 C   0  0  2  0  0  0  0  0  0  0  0  0
    8.3523   -7.9390    0.0000 O   0  0  0  0  0  0  0  0  0  0  0  0
    9.7811   -7.1140    0.0000 O   0  0  0  0  0  0  0  0  0  0  0  0
   11.2101   -9.5894    0.0000 O   0  0  0  0  0  0  0  0  0  0  0  0
   11.2101   -7.9390    0.0000 O   0  0  0  0  0  0  0  0  0  0  0  0
    8.3523   -9.5894    0.0000 O   0  0  0  0  0  0  0  0  0  0  0  0
    9.7811  -10.4144    0.0000 O   0  0  0  0  0  0  0  0  0  0  0  0
   10.4957   -6.7015    0.0000 C   0  0  0  0  0  0  0  0  0  0  0  0
   11.2101   -5.4640    0.0000 C   0  0  2  0  0  0  0  0  0  0  0  0
   10.4957   -5.8765    0.0000 C   0  0  2  0  0  0  0  0  0  0  0  0
   11.2101   -7.1140    0.0000 O   0  0  0  0  0  0  0  0  0  0  0  0
   11.9245   -6.7015    0.0000 C   0  0  1  0  0  0  0  0  0  0  0  0
   11.9245   -5.8765    0.0000 C   0  0  1  0  0  0  0  0  0  0  0  0
   12.6392   -7.1140    0.0000 C   0  0  0  0  0  0  0  0  0  0  0  0
   11.2101   -4.6390    0.0000 O   0  0  0  0  0  0  0  0  0  0  0  0
    9.7811   -5.4640    0.0000 O   0  0  0  0  0  0  0  0  0  0  0  0
   12.6392   -5.4640    0.0000 O   0  0  0  0  0  0  0  0  0  0  0  0
   13.3536   -6.7015    0.0000 O   0  0  0  0  0  0  0  0  0  0  0  0
   14.2090   -6.6930    0.0000 P   0  0  0  0  0  0  0  0  0  0  0  0
   14.2090   -5.8881    0.0000 O   0  5  0  0  0  0  0  0  0  0  0  0
   14.2090   -7.4984    0.0000 O   0  0  0  0  0  0  0  0  0  0  0  0
   15.0141   -6.6930    0.0000 O   0  0  0  0  0  0  0  0  0  0  0  0
   17.1576   -7.1057    0.0000 C   0  0  1  0  0  0  0  0  0  0  0  0
   17.1576   -7.9307    0.0000 C   0  0  1  0  0  0  0  0  0  0  0  0
   16.4431   -6.6930    0.0000 C   0  0  2  0  0  0  0  0  0  0  0  0
   16.4431   -8.3434    0.0000 C   0  0  2  0  0  0  0  0  0  0  0  0
   15.7287   -7.1057    0.0000 C   0  0  1  0  0  0  0  0  0  0  0  0
   15.7287   -7.9307    0.0000 C   0  0  2  0  0  0  0  0  0  0  0  0
   16.4431   -5.8680    0.0000 O   0  0  0  0  0  0  0  0  0  0  0  0
   15.0141   -8.3434    0.0000 O   0  0  0  0  0  0  0  0  0  0  0  0
   16.4431   -9.1683    0.0000 O   0  0  0  0  0  0  0  0  0  0  0  0
   17.8720   -8.3434    0.0000 O   0  0  0  0  0  0  0  0  0  0  0  0
   17.8720   -6.6930    0.0000 O   0  0  0  0  0  0  0  0  0  0  0  0
    5.2856   -9.6238    0.0000 C   0  0  0  0  0  0  0  0  0  0  0  0
    4.5711  -10.0363    0.0000 R   0  0  0  0  0  0  0  0  0  0  0  0
    6.0001  -10.0363    0.0000 O   0  0  0  0  0  0  0  0  0  0  0  0
  2  3  1  0  0  0  0
  3  4  1  0  0  0  0
  4  5  1  0  0  0  0
  5  6  1  0  0  0  0
  4  1  1  6  0  0  0
  3  7  1  1  0  0  0
  6  8  1  0  0  0  0
  8  9  1  0  0  0  0
  8 10  2  0  0  0  0
 11 12  1  0  0  0  0
 12 13  1  0  0  0  0
 13 14  1  0  0  0  0
 14 15  1  0  0  0  0
 15 16  1  0  0  0  0
 11 16  1  0  0  0  0
 12 17  1  1  0  0  0
  8 17  1  0  0  0  0
 11 18  1  6  0  0  0
 15 19  1  6  0  0  0
 16 20  1  1  0  0  0
 13 21  1  1  0  0  0
 14 22  1  1  0  0  0
 18 23  1  0  0  0  0
 25 23  1  0  0  0  0
 23 26  1  0  0  0  0
 24 25  1  0  0  0  0
 26 27  1  0  0  0  0
 27 28  1  0  0  0  0
 24 28  1  0  0  0  0
 27 29  1  1  0  0  0
 24 30  1  1  0  0  0
 25 31  1  1  0  0  0
 28 32  1  6  0  0  0
 29 33  1  0  0  0  0
 33 34  1  0  0  0  0
 34 35  1  0  0  0  0
 34 36  2  0  0  0  0
 34 37  1  0  0  0  0
 39 38  1  0  0  0  0
 40 38  1  0  0  0  0
 41 39  1  0  0  0  0
 42 40  1  0  0  0  0
 43 41  1  0  0  0  0
 43 42  1  0  0  0  0
 40 44  1  6  0  0  0
 42 37  1  1  0  0  0
 43 45  1  1  0  0  0
 41 46  1  1  0  0  0
 39 47  1  6  0  0  0
 38 48  1  1  0  0  0
  1 49  1  0  0  0  0
 49 50  1  0  0  0  0
 49 51  2  0  0  0  0
M  CHG  2   9  -1  35  -1
M  END

>  <ACTIVITY>
5.00
$$$$
65469

  Mrv0541 05041708512D          

 25 27  0  0  0  0            999 V2000
    5.0482   -6.3858    0.0000 C   0  0  0  0  0  0  0  0  0  0  0  0
    4.6686   -7.1152    0.0000 C   0  0  0  0  0  0  0  0  0  0  0  0
    5.1108   -7.8138    0.0000 C   0  0  0  0  0  0  0  0  0  0  0  0
    5.8694   -6.3471    0.0000 C   0  0  0  0  0  0  0  0  0  0  0  0
    5.9328   -7.7692    0.0000 C   0  0  0  0  0  0  0  0  0  0  0  0
    6.3119   -7.0370    0.0000 C   0  0  0  0  0  0  0  0  0  0  0  0
    7.1298   -6.8744    0.0000 O   0  0  0  0  0  0  0  0  0  0  0  0
    6.2742   -8.5265    0.0000 C   0  0  0  0  0  0  0  0  0  0  0  0
    7.0792   -8.7294    0.0000 C   0  0  0  0  0  0  0  0  0  0  0  0
    7.7598   -7.4001    0.0000 C   0  0  0  0  0  0  0  0  0  0  0  0
    7.7377   -8.2295    0.0000 C   0  0  0  0  0  0  0  0  0  0  0  0
    9.1894   -7.4273    0.0000 C   0  0  0  0  0  0  0  0  0  0  0  0
    8.4816   -6.9996    0.0000 C   0  0  0  0  0  0  0  0  0  0  0  0
    8.4989   -6.1775    0.0000 O   0  0  0  0  0  0  0  0  0  0  0  0
    9.9108   -7.0314    0.0000 C   0  0  0  0  0  0  0  0  0  0  0  0
    9.1760   -8.2627    0.0000 C   0  0  0  0  0  0  0  0  0  0  0  0
    8.4465   -8.6560    0.0000 C   0  0  0  0  0  0  0  0  0  0  0  0
    4.7300   -8.5448    0.0000 O   0  0  0  0  0  0  0  0  0  0  0  0
    3.8437   -7.1523    0.0000 C   0  0  0  0  0  0  0  0  0  0  0  0
    3.3996   -6.4585    0.0000 C   0  0  0  0  0  0  0  0  0  0  0  0
    2.5766   -6.4918    0.0000 C   0  0  0  0  0  0  0  0  0  0  0  0
    2.1325   -5.7980    0.0000 C   0  0  0  0  0  0  0  0  0  0  0  0
    2.1957   -7.2226    0.0000 C   0  0  0  0  0  0  0  0  0  0  0  0
    9.8806   -8.6891    0.0000 O   0  0  0  0  0  0  0  0  0  0  0  0
    9.2208   -5.7823    0.0000 C   0  0  0  0  0  0  0  0  0  0  0  0
  2  3  1  0  0  0  0
 16 12  1  0  0  0  0
  5  6  1  0  0  0  0
 12 13  2  0  0  0  0
 13 10  1  0  0  0  0
  3  5  2  0  0  0  0
 13 14  1  0  0  0  0
  6  7  1  0  0  0  0
 12 15  1  0  0  0  0
 16 17  2  0  0  0  0
  1  2  2  0  0  0  0
  5  8  1  0  0  0  0
  7 10  1  0  0  0  0
  3 18  1  0  0  0  0
  6  4  2  0  0  0  0
  2 19  1  0  0  0  0
  8  9  2  0  0  0  0
 19 20  1  0  0  0  0
  9 11  1  0  0  0  0
 20 21  2  0  0  0  0
  4  1  1  0  0  0  0
 21 22  1  0  0  0  0
 21 23  1  0  0  0  0
 10 11  2  0  0  0  0
 16 24  1  0  0  0  0
 11 17  1  0  0  0  0
 14 25  1  0  0  0  0
M  END

>  <ACTIVITY>
5.00
$$$$
9738

  Mrv0541 05041708512D          
 
 22 24  0  0  0  0            999 V2000
    0.0000   -0.8250    0.0000 C   0  0  0  0  0  0  0  0  0  0  0  0
    0.4125    1.8073    0.0000 C   0  0  0  0  0  0  0  0  0  0  0  0
    0.9269    1.1623    0.0000 C   0  0  0  0  0  0  0  0  0  0  0  0
    0.7433    0.3580    0.0000 C   0  0  0  0  0  0  0  0  0  0  0  0
   -0.4125    1.8073    0.0000 C   0  0  0  0  0  0  0  0  0  0  0  0
   -0.7433    0.3580    0.0000 C   0  0  0  0  0  0  0  0  0  0  0  0
   -0.9269    1.1623    0.0000 C   0  0  0  0  0  0  0  0  0  0  0  0
    1.3481   -0.2032    0.0000 C   0  0  0  0  0  0  0  0  0  0  0  0
    2.1364    0.0400    0.0000 C   0  0  0  0  0  0  0  0  0  0  0  0
    2.3200    0.8443    0.0000 C   0  0  0  0  0  0  0  0  0  0  0  0
    1.7152    1.4054    0.0000 C   0  0  0  0  0  0  0  0  0  0  0  0
   -1.7152    1.4054    0.0000 C   0  0  0  0  0  0  0  0  0  0  0  0
   -2.3200    0.8443    0.0000 C   0  0  0  0  0  0  0  0  0  0  0  0
   -2.1364    0.0400    0.0000 C   0  0  0  0  0  0  0  0  0  0  0  0
   -1.3481   -0.2032    0.0000 C   0  0  0  0  0  0  0  0  0  0  0  0
    0.7145   -2.0625    0.0000 C   0  0  0  0  0  0  0  0  0  0  0  0
    1.4289   -3.3000    0.0000 C   0  0  0  0  0  0  0  0  0  0  0  0
    1.4289   -2.4750    0.0000 N   0  0  0  0  0  0  0  0  0  0  0  0
    2.1434   -2.0625    0.0000 C   0  0  0  0  0  0  0  0  0  0  0  0
    0.7145   -1.2375    0.0000 C   0  0  0  0  0  0  0  0  0  0  0  0
    1.4290   -0.8250    0.0000 C   0  0  0  0  0  0  0  0  0  0  0  0
    0.0000    0.0000    0.0000 N   0  0  0  0  0  0  0  0  0  0  0  0
  4 22  1  0  0  0  0
 22  6  1  0  0  0  0
 22  1  1  0  0  0  0
  1 20  1  0  0  0  0
  2  5  1  0  0  0  0
  2  3  1  0  0  0  0
  3  4  2  0  0  0  0
  3 11  1  0  0  0  0
  4  8  1  0  0  0  0
  5  7  1  0  0  0  0
  6  7  2  0  0  0  0
  6 15  1  0  0  0  0
  7 12  1  0  0  0  0
  8  9  2  0  0  0  0
  9 10  1  0  0  0  0
 10 11  2  0  0  0  0
 12 13  2  0  0  0  0
 13 14  1  0  0  0  0
 14 15  2  0  0  0  0
 20 16  1  0  0  0  0
 16 18  1  0  0  0  0
 18 17  1  0  0  0  0
 18 19  1  0  0  0  0
 20 21  1  0  0  0  0
M  END

>  <ACTIVITY>
5.00
$$$$
7849

  Mrv0541 05041708512D          

 41 46  0  0  1  0            999 V2000
   10.1679   -3.2936    0.0000 C   0  0  2  0  0  0  0  0  0  0  0  0
    9.8056   -4.0345    0.0000 C   0  0  2  0  0  0  0  0  0  0  0  0
   10.9932   -3.2338    0.0000 C   0  0  2  0  0  0  0  0  0  0  0  0
    9.8126   -2.5457    0.0000 C   0  0  0  0  0  0  0  0  0  0  0  0
    8.9978   -4.2245    0.0000 C   0  0  0  0  0  0  0  0  0  0  0  0
   10.2692   -4.7155    0.0000 C   0  0  0  0  0  0  0  0  0  0  0  0
   11.4570   -3.9148    0.0000 C   0  0  0  0  0  0  0  0  0  0  0  0
    9.0048   -2.3592    0.0000 C   0  0  2  0  0  0  0  0  0  0  0  0
    8.3555   -3.7010    0.0000 C   0  0  0  0  0  0  0  0  0  0  0  0
   11.0910   -4.6635    0.0000 C   0  0  2  0  0  0  0  0  0  0  0  0
    9.6333   -1.8087    0.0000 C   0  0  0  0  0  0  0  0  0  0  0  0
    8.3590   -2.8791    0.0000 C   0  0  2  0  0  0  0  0  0  0  0  0
    7.6427   -4.1118    0.0000 N   0  0  0  0  0  0  0  0  0  0  0  0
   11.4984   -5.3692    0.0000 C   0  0  0  0  0  0  0  0  0  0  0  0
    7.6463   -2.4648    0.0000 C   0  0  0  0  0  0  0  0  0  0  0  0
    6.9293   -3.6975    0.0000 C   0  0  1  0  0  0  0  0  0  0  0  0
    6.9293   -2.8757    0.0000 C   0  0  0  0  0  0  0  0  0  0  0  0
    6.2200   -4.1118    0.0000 C   0  0  0  0  0  0  0  0  0  0  0  0
    6.2236   -4.9337    0.0000 C   0  0  2  0  0  0  0  0  0  0  0  0
    6.9328   -5.3446    0.0000 C   0  0  1  0  0  0  0  0  0  0  0  0
    5.5038   -5.3446    0.0000 C   0  0  0  0  0  0  0  0  0  0  0  0
    6.9293   -6.1700    0.0000 C   0  0  2  0  0  0  0  0  0  0  0  0
    7.6497   -4.9337    0.0000 C   0  0  0  0  0  0  0  0  0  0  0  0
    5.5038   -6.1700    0.0000 C   0  0  1  0  0  0  0  0  0  0  0  0
    7.6427   -6.5843    0.0000 N   0  0  0  0  0  0  0  0  0  0  0  0
    6.2236   -6.5809    0.0000 C   0  0  0  0  0  0  0  0  0  0  0  0
    8.3590   -5.3516    0.0000 C   0  0  0  0  0  0  0  0  0  0  0  0
    4.7868   -6.5773    0.0000 C   0  0  0  0  0  0  0  0  0  0  0  0
    8.3625   -6.1770    0.0000 C   0  0  0  0  0  0  0  0  0  0  0  0
    7.6393   -7.4026    0.0000 C   0  0  0  0  0  0  0  0  0  0  0  0
    8.3520   -7.8100    0.0000 C   0  0  0  0  0  0  0  0  0  0  0  0
    6.9257   -7.8134    0.0000 O   0  0  0  0  0  0  0  0  0  0  0  0
   10.5329   -2.6580    0.0000 H   0  0  0  0  0  0  0  0  0  0  0  0
    9.3876   -4.7402    0.0000 H   0  0  0  0  0  0  0  0  0  0  0  0
    6.2166   -3.2865    0.0000 H   0  0  0  0  0  0  0  0  0  0  0  0
    5.5002   -4.5193    0.0000 H   0  0  0  0  0  0  0  0  0  0  0  0
    6.9257   -4.5193    0.0000 H   0  0  0  0  0  0  0  0  0  0  0  0
    6.9223   -6.9881    0.0000 H   0  0  0  0  0  0  0  0  0  0  0  0
   11.3562   -2.4849    0.0000 N   0  0  0  0  0  0  0  0  0  0  0  0
   12.1315   -2.1780    0.0000 C   0  0  0  0  0  0  0  0  0  0  0  0
    8.3520   -2.0541    0.0000 O   0  0  0  0  0  0  0  0  0  0  0  0
  1  3  1  0  0  0  0
  1  4  1  0  0  0  0
  2  5  1  0  0  0  0
  2  6  1  0  0  0  0
  3  7  1  0  0  0  0
  4  8  1  0  0  0  0
  5  9  1  0  0  0  0
  6 10  1  0  0  0  0
  8 12  1  0  0  0  0
  9 13  2  0  0  0  0
 10 14  1  6  0  0  0
 12 15  1  0  0  0  0
 13 16  1  0  0  0  0
 15 17  1  0  0  0  0
 16 18  1  0  0  0  0
 18 19  1  0  0  0  0
 19 20  1  0  0  0  0
 19 21  1  0  0  0  0
 20 22  1  0  0  0  0
 20 23  1  0  0  0  0
 21 24  1  0  0  0  0
 22 25  1  0  0  0  0
 22 26  1  0  0  0  0
 23 27  1  0  0  0  0
 24 28  1  1  0  0  0
 25 29  1  0  0  0  0
 25 30  1  0  0  0  0
 30 31  1  0  0  0  0
 30 32  2  0  0  0  0
  7 10  1  0  0  0  0
  8 11  1  1  0  0  0
  9 12  1  0  0  0  0
 16 17  1  0  0  0  0
 24 26  1  0  0  0  0
 27 29  1  0  0  0  0
  1 33  1  6  0  0  0
  2 34  1  6  0  0  0
 12 41  1  1  0  0  0
 16 35  1  1  0  0  0
 19 36  1  1  0  0  0
 20 37  1  1  0  0  0
 22 38  1  1  0  0  0
  3 39  1  1  0  0  0
 39 11  1  0  0  0  0
  1  2  1  0  0  0  0
 39 40  1  0  0  0  0
M  END

>  <ACTIVITY>
5.00
$$$$
4710

  Mrv0541 05041708512D          

 22 24  0  0  0  0            999 V2000
    0.0000    0.0000    0.0000 C   0  0  0  0  0  0  0  0  0  0  0  0
   -0.7433    0.3580    0.0000 C   0  0  0  0  0  0  0  0  0  0  0  0
    0.7433    0.3580    0.0000 C   0  0  0  0  0  0  0  0  0  0  0  0
   -0.9268    1.1623    0.0000 C   0  0  0  0  0  0  0  0  0  0  0  0
   -1.3480   -0.2032    0.0000 C   0  0  0  0  0  0  0  0  0  0  0  0
    0.9269    1.1623    0.0000 C   0  0  0  0  0  0  0  0  0  0  0  0
    1.3481   -0.2032    0.0000 C   0  0  0  0  0  0  0  0  0  0  0  0
    0.7145   -1.2375    0.0000 C   0  0  0  0  0  0  0  0  0  0  0  0
   -0.4125    1.8073    0.0000 C   0  0  0  0  0  0  0  0  0  0  0  0
   -1.7152    1.4055    0.0000 C   0  0  0  0  0  0  0  0  0  0  0  0
   -2.1364    0.0400    0.0000 C   0  0  0  0  0  0  0  0  0  0  0  0
    0.4125    1.8073    0.0000 O   0  0  0  0  0  0  0  0  0  0  0  0
    1.7153    1.4055    0.0000 C   0  0  0  0  0  0  0  0  0  0  0  0
    2.1364    0.0400    0.0000 C   0  0  0  0  0  0  0  0  0  0  0  0
    0.7145   -2.0625    0.0000 C   0  0  0  0  0  0  0  0  0  0  0  0
   -2.3200    0.8443    0.0000 C   0  0  0  0  0  0  0  0  0  0  0  0
    2.3200    0.8443    0.0000 C   0  0  0  0  0  0  0  0  0  0  0  0
    1.4290   -2.4750    0.0000 N   0  0  0  0  0  0  0  0  0  0  0  0
    2.1434   -2.0625    0.0000 C   0  0  0  0  0  0  0  0  0  0  0  0
    1.4290   -3.3000    0.0000 C   0  0  0  0  0  0  0  0  0  0  0  0
    0.0000   -0.8250    0.0000 C   0  0  0  0  0  0  0  0  0  0  0  0
   -0.7145   -1.2375    0.0000 H   0  0  0  0  0  0  0  0  0  0  0  0
  1  2  1  0  0  0  0
  1  3  1  0  0  0  0
  1 21  2  0  0  0  0
  2  4  1  0  0  0  0
  2  5  2  0  0  0  0
  3  6  1  0  0  0  0
  3  7  2  0  0  0  0
 21  8  1  0  0  0  0
  4  9  1  0  0  0  0
  4 10  2  0  0  0  0
  5 11  1  0  0  0  0
  6 12  1  0  0  0  0
  6 13  2  0  0  0  0
  7 14  1  0  0  0  0
  8 15  1  0  0  0  0
 10 16  1  0  0  0  0
 13 17  1  0  0  0  0
 15 18  1  0  0  0  0
 18 19  1  0  0  0  0
 18 20  1  0  0  0  0
  9 12  1  0  0  0  0
 11 16  2  0  0  0  0
 14 17  2  0  0  0  0
 21 22  1  4  0  0  0
M  END

>  <ACTIVITY>
5.00
$$$$
62439

  Mrv0541 05041708512D          

 48 53  0  0  1  0            999 V2000
   11.6181   -4.1290    0.0000 C   0  0  0  0  0  0  0  0  0  0  0  0
   12.3052   -4.5412    0.0000 C   0  0  0  0  0  0  0  0  0  0  0  0
   12.3052   -5.3384    0.0000 C   0  0  2  0  0  0  0  0  0  0  0  0
   11.6181   -5.7506    0.0000 C   0  0  2  0  0  0  0  0  0  0  0  0
   11.6181   -6.5752    0.0000 C   0  0  0  0  0  0  0  0  0  0  0  0
   10.9035   -6.9875    0.0000 C   0  0  0  0  0  0  0  0  0  0  0  0
   10.1889   -6.5752    0.0000 C   0  0  1  0  0  0  0  0  0  0  0  0
    9.4742   -6.9875    0.0000 C   0  0  1  0  0  0  0  0  0  0  0  0
    8.7870   -6.5752    0.0000 C   0  0  1  0  0  0  0  0  0  0  0  0
    8.0724   -6.9875    0.0000 C   0  0  2  0  0  0  0  0  0  0  0  0
    8.0724   -7.7846    0.0000 C   0  0  2  0  0  0  0  0  0  0  0  0
    7.3853   -8.1969    0.0000 C   0  0  2  0  0  0  0  0  0  0  0  0
    6.6707   -7.7846    0.0000 C   0  0  2  0  0  0  0  0  0  0  0  0
    6.6707   -6.9875    0.0000 C   0  0  0  0  0  0  0  0  0  0  0  0
    7.3853   -6.5752    0.0000 C   0  0  0  0  0  0  0  0  0  0  0  0
   10.9035   -4.5412    0.0000 C   0  0  0  0  0  0  0  0  0  0  0  0
   10.9035   -5.3384    0.0000 C   0  0  1  0  0  0  0  0  0  0  0  0
   10.1889   -5.7506    0.0000 C   0  0  0  0  0  0  0  0  0  0  0  0
    9.4742   -5.3384    0.0000 C   0  0  0  0  0  0  0  0  0  0  0  0
    8.7870   -5.7506    0.0000 C   0  0  0  0  0  0  0  0  0  0  0  0
    9.4742   -7.7846    0.0000 C   0  0  0  0  0  0  0  0  0  0  0  0
    8.7870   -8.1969    0.0000 C   0  0  0  0  0  0  0  0  0  0  0  0
   11.2058   -3.4144    0.0000 C   0  0  0  0  0  0  0  0  0  0  0  0
   12.0304   -3.4144    0.0000 C   0  0  0  0  0  0  0  0  0  0  0  0
   13.0199   -5.7506    0.0000 O   0  0  0  0  0  0  0  0  0  0  0  0
   10.2438   -7.5098    0.0000 C   0  0  0  0  0  0  0  0  0  0  0  0
    9.5292   -6.1904    0.0000 C   0  0  0  0  0  0  0  0  0  0  0  0
    8.0724   -6.1629    0.0000 C   0  0  0  0  0  0  0  0  0  0  0  0
    7.7701   -8.9115    0.0000 C   0  0  0  0  0  0  0  0  0  0  0  0
    6.9730   -8.9115    0.0000 C   0  0  0  0  0  0  0  0  0  0  0  0
    5.9560   -8.1969    0.0000 O   0  0  0  0  0  0  0  0  0  0  0  0
    8.0724   -8.6092    0.0000 H   0  0  0  0  0  0  0  0  0  0  0  0
    8.8145   -7.4548    0.0000 H   0  0  0  0  0  0  0  0  0  0  0  0
   10.9310   -6.2729    0.0000 H   0  0  0  0  0  0  0  0  0  0  0  0
   11.6201   -4.9304    0.0000 C   0  0  0  0  0  0  0  0  0  0  0  0
    7.3657   -9.6320    0.0000 O   0  0  0  0  0  0  0  0  0  0  0  0
    5.2415   -7.7844    0.0000 C   0  0  1  0  0  0  0  0  0  0  0  0
    4.5270   -8.1968    0.0000 C   0  0  1  0  0  0  0  0  0  0  0  0
    5.2415   -6.9593    0.0000 O   0  0  0  0  0  0  0  0  0  0  0  0
    3.8125   -7.7843    0.0000 C   0  0  2  0  0  0  0  0  0  0  0  0
    4.5270   -6.5468    0.0000 C   0  0  1  0  0  0  0  0  0  0  0  0
    3.8125   -6.9593    0.0000 C   0  0  1  0  0  0  0  0  0  0  0  0
    4.5269   -9.0219    0.0000 O   0  0  0  0  0  0  0  0  0  0  0  0
    3.0979   -8.1968    0.0000 O   0  0  0  0  0  0  0  0  0  0  0  0
    3.0980   -6.5467    0.0000 O   0  0  0  0  0  0  0  0  0  0  0  0
    4.5270   -5.7217    0.0000 C   0  0  0  0  0  0  0  0  0  0  0  0
    3.8125   -5.3092    0.0000 O   0  0  0  0  0  0  0  0  0  0  0  0
    5.2431   -5.3118    0.0000 O   0  0  0  0  0  0  0  0  0  0  0  0
  2  1  1  0  0  0  0
 16  1  1  0  0  0  0
  1 23  1  0  0  0  0
  1 24  1  0  0  0  0
  3  2  1  0  0  0  0
  4  3  1  0  0  0  0
  3 25  1  1  0  0  0
  5  4  1  0  0  0  0
 17  4  1  0  0  0  0
  6  5  1  0  0  0  0
  7  6  1  0  0  0  0
  8  7  1  0  0  0  0
 18  7  1  0  0  0  0
  7 26  1  6  0  0  0
 21  8  1  0  0  0  0
  9  8  1  0  0  0  0
  8 27  1  1  0  0  0
 10  9  1  0  0  0  0
 20  9  1  0  0  0  0
  9 33  1  6  0  0  0
 15 10  1  0  0  0  0
 11 10  1  0  0  0  0
 10 28  1  1  0  0  0
 12 11  1  0  0  0  0
 22 11  1  0  0  0  0
 11 32  1  6  0  0  0
 13 12  1  0  0  0  0
 12 29  1  1  0  0  0
 12 30  1  6  0  0  0
 14 13  1  0  0  0  0
 13 31  1  1  0  0  0
 15 14  1  0  0  0  0
 17 16  1  0  0  0  0
 18 17  1  0  0  0  0
 17 34  1  1  0  0  0
 19 18  2  0  0  0  0
 20 19  1  0  0  0  0
 22 21  1  0  0  0  0
  4 35  1  1  0  0  0
 29 36  1  0  0  0  0
 37 38  1  0  0  0  0
 37 39  1  0  0  0  0
 38 40  1  0  0  0  0
 39 41  1  0  0  0  0
 40 42  1  0  0  0  0
 41 42  1  0  0  0  0
 37 31  1  1  0  0  0
 38 43  1  6  0  0  0
 40 44  1  1  0  0  0
 42 45  1  6  0  0  0
 41 46  1  1  0  0  0
 47 46  1  0  0  0  0
 46 48  2  0  0  0  0
M  END

>  <ACTIVITY>
5.00
$$$$
68859

  Mrv0541 05041708512D          

 31 33  0  0  0  0            999 V2000
   11.0405    1.6401    0.0000 C   0  0  0  0  0  0  0  0  0  0  0  0
   11.7199   -0.0971    0.0000 O   0  0  0  0  0  0  0  0  0  0  0  0
   10.9409   -0.2172    0.0000 C   0  0  0  0  0  0  0  0  0  0  0  0
   10.3424    0.3292    0.0000 C   0  0  0  0  0  0  0  0  0  0  0  0
   10.3632    1.1302    0.0000 C   0  0  0  0  0  0  0  0  0  0  0  0
    9.6810    1.5470    0.0000 C   0  0  0  0  0  0  0  0  0  0  0  0
    8.9775    1.1638    0.0000 C   0  0  0  0  0  0  0  0  0  0  0  0
    8.9605    0.3597    0.0000 C   0  0  0  0  0  0  0  0  0  0  0  0
    9.6433   -0.0535    0.0000 C   0  0  0  0  0  0  0  0  0  0  0  0
   11.8350    1.4121    0.0000 C   0  0  0  0  0  0  0  0  0  0  0  0
   12.1411    0.6488    0.0000 C   0  0  0  0  0  0  0  0  0  0  0  0
   12.9534    0.5335    0.0000 C   0  0  0  0  0  0  0  0  0  0  0  0
   13.4606    1.1805    0.0000 C   0  0  0  0  0  0  0  0  0  0  0  0
   13.1496    1.9452    0.0000 C   0  0  0  0  0  0  0  0  0  0  0  0
   12.3381    2.0569    0.0000 C   0  0  0  0  0  0  0  0  0  0  0  0
   10.7022   -1.0070    0.0000 O   0  0  0  0  0  0  0  0  0  0  0  0
   12.0277    2.8213    0.0000 O   0  0  0  0  0  0  0  0  0  0  0  0
   10.8904    2.4513    0.0000 O   0  0  0  0  0  0  0  0  0  0  0  0
    9.7015    2.3717    0.0000 O   0  0  0  0  0  0  0  0  0  0  0  0
    8.2376   -0.0378    0.0000 C   0  0  0  0  0  0  0  0  0  0  0  0
    9.6255   -0.8783    0.0000 O   0  0  0  0  0  0  0  0  0  0  0  0
    8.9023   -1.2752    0.0000 C   0  0  0  0  0  0  0  0  0  0  0  0
    8.8844   -2.1000    0.0000 C   0  0  0  0  0  0  0  0  0  0  0  0
    8.1612   -2.4970    0.0000 C   0  0  0  0  0  0  0  0  0  0  0  0
    8.1434   -3.3218    0.0000 C   0  0  0  0  0  0  0  0  0  0  0  0
    7.4558   -2.0691    0.0000 C   0  0  0  0  0  0  0  0  0  0  0  0
   13.2614   -0.2319    0.0000 C   0  0  0  0  0  0  0  0  0  0  0  0
   14.0782   -0.3479    0.0000 C   0  0  0  0  0  0  0  0  0  0  0  0
   14.5870    0.3015    0.0000 C   0  0  0  0  0  0  0  0  0  0  0  0
   15.4038    0.1855    0.0000 C   0  0  0  0  0  0  0  0  0  0  0  0
   14.2791    1.0668    0.0000 C   0  0  0  0  0  0  0  0  0  0  0  0
 14 15  2  0  0  0  0
 15 10  1  0  0  0  0
  6  7  2  0  0  0  0
  3 16  1  0  0  0  0
  2  3  1  0  0  0  0
 15 17  1  0  0  0  0
  7  8  1  0  0  0  0
  1 18  2  0  0  0  0
  3  4  1  0  0  0  0
  6 19  1  0  0  0  0
  8  9  2  0  0  0  0
  8 20  1  0  0  0  0
  9  4  1  0  0  0  0
  9 21  1  0  0  0  0
 21 22  1  0  0  0  0
  1  5  1  0  0  0  0
 22 23  1  0  0  0  0
 10 11  2  0  0  0  0
 23 24  2  0  0  0  0
  4  5  2  0  0  0  0
 24 25  1  0  0  0  0
 11 12  1  0  0  0  0
 24 26  1  0  0  0  0
  1 10  1  0  0  0  0
 12 27  1  0  0  0  0
 12 13  2  0  0  0  0
 27 28  1  0  0  0  0
  5  6  1  0  0  0  0
 28 29  2  0  0  0  0
 13 14  1  0  0  0  0
 29 30  1  0  0  0  0
 11  2  1  0  0  0  0
 29 31  1  0  0  0  0
M  END

>  <ACTIVITY>
5.00
$$$$
47499

  Mrv0541 05041708512D          
 
 21 23  0  0  0  0            999 V2000
    0.0000    0.0000    0.0000 N   0  0  0  0  0  0  0  0  0  0  0  0
    0.4125    1.8073    0.0000 C   0  0  0  0  0  0  0  0  0  0  0  0
    0.9269    1.1623    0.0000 C   0  0  0  0  0  0  0  0  0  0  0  0
    0.7433    0.3580    0.0000 C   0  0  0  0  0  0  0  0  0  0  0  0
   -0.4125    1.8073    0.0000 C   0  0  0  0  0  0  0  0  0  0  0  0
   -0.7433    0.3580    0.0000 C   0  0  0  0  0  0  0  0  0  0  0  0
   -0.9269    1.1623    0.0000 C   0  0  0  0  0  0  0  0  0  0  0  0
    1.3481   -0.2032    0.0000 C   0  0  0  0  0  0  0  0  0  0  0  0
    2.1364    0.0400    0.0000 C   0  0  0  0  0  0  0  0  0  0  0  0
    2.3200    0.8443    0.0000 C   0  0  0  0  0  0  0  0  0  0  0  0
    1.7152    1.4054    0.0000 C   0  0  0  0  0  0  0  0  0  0  0  0
   -1.7152    1.4054    0.0000 C   0  0  0  0  0  0  0  0  0  0  0  0
   -2.3200    0.8443    0.0000 C   0  0  0  0  0  0  0  0  0  0  0  0
   -2.1364    0.0400    0.0000 C   0  0  0  0  0  0  0  0  0  0  0  0
   -1.3481   -0.2032    0.0000 C   0  0  0  0  0  0  0  0  0  0  0  0
    0.0000   -0.8250    0.0000 C   0  0  0  0  0  0  0  0  0  0  0  0
    0.7145   -1.2375    0.0000 C   0  0  0  0  0  0  0  0  0  0  0  0
    0.7145   -2.0625    0.0000 C   0  0  0  0  0  0  0  0  0  0  0  0
    1.4289   -2.4750    0.0000 N   0  0  0  0  0  0  0  0  0  0  0  0
    2.1434   -2.0625    0.0000 C   0  0  0  0  0  0  0  0  0  0  0  0
    1.4289   -3.3000    0.0000 C   0  0  0  0  0  0  0  0  0  0  0  0
  4  1  1  0  0  0  0
  1  6  1  0  0  0  0
  1 16  1  0  0  0  0
  2  5  1  0  0  0  0
  2  3  1  0  0  0  0
  3  4  2  0  0  0  0
  3 11  1  0  0  0  0
  4  8  1  0  0  0  0
  5  7  1  0  0  0  0
  6  7  2  0  0  0  0
  6 15  1  0  0  0  0
  7 12  1  0  0  0  0
  8  9  2  0  0  0  0
  9 10  1  0  0  0  0
 10 11  2  0  0  0  0
 12 13  2  0  0  0  0
 13 14  1  0  0  0  0
 14 15  2  0  0  0  0
 16 17  1  0  0  0  0
 17 18  1  0  0  0  0
 18 19  1  0  0  0  0
 19 20  1  0  0  0  0
 19 21  1  0  0  0  0
M  END

>  <ACTIVITY>
5.00
$$$$
64202

  Mrv0541 05041708512D          

 32 34  0  0  0  0            999 V2000
    8.6420   -7.5932    0.0000 N   0  0  0  0  0  0  0  0  0  0  0  0
    9.3687   -6.1398    0.0000 N   0  0  0  0  0  0  0  0  0  0  0  0
    8.5871   -6.1946    0.0000 C   0  0  0  0  0  0  0  0  0  0  0  0
    9.4784   -7.5658    0.0000 C   0  0  0  0  0  0  0  0  0  0  0  0
    9.8486   -6.8253    0.0000 C   0  0  0  0  0  0  0  0  0  0  0  0
    8.2169   -6.9350    0.0000 C   0  0  0  0  0  0  0  0  0  0  0  0
    8.2718   -8.3337    0.0000 C   0  0  0  0  0  0  0  0  0  0  0  0
   10.2051   -3.6441    0.0000 S   0  0  0  0  0  0  0  0  0  0  0  0
   10.9456   -4.0144    0.0000 C   0  0  0  0  0  0  0  0  0  0  0  0
   11.1101   -4.7822    0.0000 C   0  0  0  0  0  0  0  0  0  0  0  0
   10.5616   -5.3993    0.0000 C   0  0  0  0  0  0  0  0  0  0  0  0
    9.7390   -5.3993    0.0000 C   0  0  0  0  0  0  0  0  0  0  0  0
    9.2864   -4.7960    0.0000 C   0  0  0  0  0  0  0  0  0  0  0  0
    9.4510   -3.9869    0.0000 C   0  0  0  0  0  0  0  0  0  0  0  0
   14.3499   -5.3953    0.0000 C   0  0  0  0  0  0  0  0  0  0  0  0
   15.0551   -5.8246    0.0000 C   0  0  0  0  0  0  0  0  0  0  0  0
   15.7603   -5.3953    0.0000 C   0  0  0  0  0  0  0  0  0  0  0  0
   15.7603   -4.5981    0.0000 C   0  0  0  0  0  0  0  0  0  0  0  0
   14.3499   -4.5981    0.0000 O   0  0  0  0  0  0  0  0  0  0  0  0
   13.6447   -5.8246    0.0000 O   0  0  0  0  0  0  0  0  0  0  0  0
   16.4655   -4.1688    0.0000 O   0  0  0  0  0  0  0  0  0  0  0  0
   15.0551   -4.1995    0.0000 O   0  0  0  0  0  0  0  0  0  0  0  0
   11.5578   -3.4613    0.0000 C   0  0  0  0  0  0  0  0  0  0  0  0
   11.9035   -5.0747    0.0000 C   0  0  0  0  0  0  0  0  0  0  0  0
   12.5157   -4.5217    0.0000 C   0  0  0  0  0  0  0  0  0  0  0  0
   12.3428   -3.7150    0.0000 C   0  0  0  0  0  0  0  0  0  0  0  0
    8.8329   -3.4409    0.0000 C   0  0  0  0  0  0  0  0  0  0  0  0
    8.0506   -3.7027    0.0000 C   0  0  0  0  0  0  0  0  0  0  0  0
    7.8862   -4.5112    0.0000 C   0  0  0  0  0  0  0  0  0  0  0  0
    8.5041   -5.0578    0.0000 C   0  0  0  0  0  0  0  0  0  0  0  0
    7.1039   -4.7730    0.0000 S   0  0  0  0  0  0  0  0  0  0  0  0
    6.9394   -5.5815    0.0000 C   0  0  0  0  0  0  0  0  0  0  0  0
  4  1  1  0  0  0  0
  6  1  1  0  0  0  0
  7  1  1  0  0  0  0
  3  2  1  0  0  0  0
  5  2  1  0  0  0  0
 12  2  1  0  0  0  0
  6  3  1  0  0  0  0
  5  4  1  0  0  0  0
  9  8  1  0  0  0  0
 14  8  1  0  0  0  0
 11 10  1  0  0  0  0
 12 11  1  0  0  0  0
 13 12  1  0  0  0  0
 16 15  1  0  0  0  0
 20 15  1  0  0  0  0
 19 15  2  0  0  0  0
 17 16  2  0  0  0  0
 18 17  1  0  0  0  0
 22 18  1  0  0  0  0
 21 18  2  0  0  0  0
 23  9  1  0  0  0  0
  9 10  2  0  0  0  0
 10 24  1  0  0  0  0
 24 25  2  0  0  0  0
 25 26  1  0  0  0  0
 23 26  2  0  0  0  0
 30 13  1  0  0  0  0
 13 14  2  0  0  0  0
 27 14  1  0  0  0  0
 27 28  2  0  0  0  0
 28 29  1  0  0  0  0
 29 30  2  0  0  0  0
 29 31  1  0  0  0  0
 31 32  1  0  0  0  0
M  END

>  <ACTIVITY>
5.00
$$$$
62441

  Mrv0541 05041708512D          

 48 53  0  0  1  0            999 V2000
   16.2340  -12.9688    0.0000 C   0  0  0  0  0  0  0  0  0  0  0  0
   16.9211  -13.3810    0.0000 C   0  0  0  0  0  0  0  0  0  0  0  0
   16.9211  -14.1783    0.0000 C   0  0  2  0  0  0  0  0  0  0  0  0
   16.2340  -14.5905    0.0000 C   0  0  2  0  0  0  0  0  0  0  0  0
   16.2340  -15.4151    0.0000 C   0  0  0  0  0  0  0  0  0  0  0  0
   15.5193  -15.8275    0.0000 C   0  0  0  0  0  0  0  0  0  0  0  0
   14.8047  -15.4151    0.0000 C   0  0  1  0  0  0  0  0  0  0  0  0
   14.0900  -15.8275    0.0000 C   0  0  1  0  0  0  0  0  0  0  0  0
   13.4027  -15.4151    0.0000 C   0  0  1  0  0  0  0  0  0  0  0  0
   12.6881  -15.8275    0.0000 C   0  0  2  0  0  0  0  0  0  0  0  0
   12.6881  -16.6246    0.0000 C   0  0  2  0  0  0  0  0  0  0  0  0
   12.0010  -17.0370    0.0000 C   0  0  2  0  0  0  0  0  0  0  0  0
   11.2864  -16.6246    0.0000 C   0  0  2  0  0  0  0  0  0  0  0  0
   11.2864  -15.8275    0.0000 C   0  0  0  0  0  0  0  0  0  0  0  0
   12.0010  -15.4151    0.0000 C   0  0  0  0  0  0  0  0  0  0  0  0
   15.5193  -13.3810    0.0000 C   0  0  0  0  0  0  0  0  0  0  0  0
   15.5193  -14.1783    0.0000 C   0  0  1  0  0  0  0  0  0  0  0  0
   14.8047  -14.5905    0.0000 C   0  0  0  0  0  0  0  0  0  0  0  0
   14.0900  -14.1783    0.0000 C   0  0  0  0  0  0  0  0  0  0  0  0
   13.4027  -14.5905    0.0000 C   0  0  0  0  0  0  0  0  0  0  0  0
   14.0900  -16.6246    0.0000 C   0  0  0  0  0  0  0  0  0  0  0  0
   13.4027  -17.0370    0.0000 C   0  0  0  0  0  0  0  0  0  0  0  0
   15.8217  -12.2542    0.0000 C   0  0  0  0  0  0  0  0  0  0  0  0
   16.6463  -12.2542    0.0000 C   0  0  0  0  0  0  0  0  0  0  0  0
   17.6359  -14.5905    0.0000 O   0  0  0  0  0  0  0  0  0  0  0  0
   14.8596  -16.3498    0.0000 C   0  0  0  0  0  0  0  0  0  0  0  0
   14.1450  -15.0303    0.0000 C   0  0  0  0  0  0  0  0  0  0  0  0
   12.6881  -15.0028    0.0000 C   0  0  0  0  0  0  0  0  0  0  0  0
   12.3858  -17.7516    0.0000 C   0  0  0  0  0  0  0  0  0  0  0  0
   11.5887  -17.7516    0.0000 C   0  0  0  0  0  0  0  0  0  0  0  0
   10.5716  -17.0370    0.0000 O   0  0  0  0  0  0  0  0  0  0  0  0
   12.6881  -17.4492    0.0000 H   0  0  0  0  0  0  0  0  0  0  0  0
   13.4303  -16.2948    0.0000 H   0  0  0  0  0  0  0  0  0  0  0  0
   15.5469  -15.1128    0.0000 H   0  0  0  0  0  0  0  0  0  0  0  0
   16.2360  -13.7703    0.0000 C   0  0  0  0  0  0  0  0  0  0  0  0
   11.9814  -18.4721    0.0000 O   0  0  0  0  0  0  0  0  0  0  0  0
    9.8570  -16.6244    0.0000 C   0  0  1  0  0  0  0  0  0  0  0  0
    9.1425  -17.0368    0.0000 C   0  0  1  0  0  0  0  0  0  0  0  0
    9.8570  -15.7992    0.0000 O   0  0  0  0  0  0  0  0  0  0  0  0
    8.4280  -16.6243    0.0000 C   0  0  2  0  0  0  0  0  0  0  0  0
    9.1425  -15.3868    0.0000 C   0  0  1  0  0  0  0  0  0  0  0  0
    8.4280  -15.7992    0.0000 C   0  0  1  0  0  0  0  0  0  0  0  0
    9.1424  -17.8620    0.0000 O   0  0  0  0  0  0  0  0  0  0  0  0
    7.7133  -17.0368    0.0000 O   0  0  0  0  0  0  0  0  0  0  0  0
    7.7135  -15.3867    0.0000 O   0  0  0  0  0  0  0  0  0  0  0  0
    9.1425  -14.5616    0.0000 C   0  0  0  0  0  0  0  0  0  0  0  0
    8.4280  -14.1491    0.0000 O   0  5  0  0  0  0  0  0  0  0  0  0
    9.8587  -14.1517    0.0000 O   0  0  0  0  0  0  0  0  0  0  0  0
  2  1  1  0  0  0  0
 16  1  1  0  0  0  0
  1 23  1  0  0  0  0
  1 24  1  0  0  0  0
  3  2  1  0  0  0  0
  4  3  1  0  0  0  0
  3 25  1  1  0  0  0
  5  4  1  0  0  0  0
 17  4  1  0  0  0  0
  6  5  1  0  0  0  0
  7  6  1  0  0  0  0
  8  7  1  0  0  0  0
 18  7  1  0  0  0  0
  7 26  1  6  0  0  0
 21  8  1  0  0  0  0
  9  8  1  0  0  0  0
  8 27  1  1  0  0  0
 10  9  1  0  0  0  0
 20  9  1  0  0  0  0
  9 33  1  6  0  0  0
 15 10  1  0  0  0  0
 11 10  1  0  0  0  0
 10 28  1  1  0  0  0
 12 11  1  0  0  0  0
 22 11  1  0  0  0  0
 11 32  1  6  0  0  0
 13 12  1  0  0  0  0
 12 29  1  1  0  0  0
 12 30  1  6  0  0  0
 14 13  1  0  0  0  0
 13 31  1  1  0  0  0
 15 14  1  0  0  0  0
 17 16  1  0  0  0  0
 18 17  1  0  0  0  0
 17 34  1  1  0  0  0
 19 18  2  0  0  0  0
 20 19  1  0  0  0  0
 22 21  1  0  0  0  0
  4 35  1  1  0  0  0
 29 36  1  0  0  0  0
 37 38  1  0  0  0  0
 37 39  1  0  0  0  0
 38 40  1  0  0  0  0
 39 41  1  0  0  0  0
 40 42  1  0  0  0  0
 41 42  1  0  0  0  0
 37 31  1  1  0  0  0
 38 43  1  6  0  0  0
 40 44  1  1  0  0  0
 42 45  1  6  0  0  0
 41 46  1  1  0  0  0
 47 46  1  0  0  0  0
 46 48  2  0  0  0  0
M  CHG  1  47  -1
M  END

>  <ACTIVITY>
5.00
$$$$
57929

  Mrv0541 05041708512D          

 40 43  0  0  0  0            999 V2000
   17.1797  -14.7570    0.0000 C   0  0  1  0  0  0  0  0  0  0  0  0
   16.4652  -15.1695    0.0000 C   0  0  1  0  0  0  0  0  0  0  0  0
   16.4652  -15.9945    0.0000 C   0  0  0  0  0  0  0  0  0  0  0  0
   17.1797  -16.4070    0.0000 C   0  0  1  0  0  0  0  0  0  0  0  0
   17.8942  -15.9945    0.0000 C   0  0  2  0  0  0  0  0  0  0  0  0
   17.8942  -15.1695    0.0000 C   0  0  2  0  0  0  0  0  0  0  0  0
   17.1797  -13.9320    0.0000 O   0  0  0  0  0  0  0  0  0  0  0  0
   18.6086  -16.4070    0.0000 O   0  0  0  0  0  0  0  0  0  0  0  0
   15.7508  -14.7570    0.0000 N   0  3  0  0  0  0  0  0  0  0  0  0
   17.1797  -17.2320    0.0000 N   0  3  0  0  0  0  0  0  0  0  0  0
   16.4652  -17.6445    0.0000 C   0  0  0  0  0  0  0  0  0  0  0  0
   18.6086  -14.7570    0.0000 O   0  0  0  0  0  0  0  0  0  0  0  0
   19.3231  -15.1695    0.0000 C   0  0  1  0  0  0  0  0  0  0  0  0
   20.0376  -14.7570    0.0000 C   0  0  2  0  0  0  0  0  0  0  0  0
   19.3231  -15.9945    0.0000 O   0  0  0  0  0  0  0  0  0  0  0  0
   20.0376  -16.4070    0.0000 C   0  0  1  0  0  0  0  0  0  0  0  0
   20.7520  -15.9945    0.0000 C   0  0  1  0  0  0  0  0  0  0  0  0
   20.7520  -15.1695    0.0000 C   0  0  2  0  0  0  0  0  0  0  0  0
   20.0376  -17.2320    0.0000 C   0  0  0  0  0  0  0  0  0  0  0  0
   20.0376  -13.9320    0.0000 O   0  0  0  0  0  0  0  0  0  0  0  0
   21.4665  -14.7570    0.0000 O   0  0  0  0  0  0  0  0  0  0  0  0
   19.3231  -17.6445    0.0000 O   0  0  0  0  0  0  0  0  0  0  0  0
   21.4665  -16.4070    0.0000 O   0  0  0  0  0  0  0  0  0  0  0  0
   21.8923  -12.5873    0.0000 C   0  0  1  0  0  0  0  0  0  0  0  0
   21.1778  -12.9998    0.0000 O   0  0  0  0  0  0  0  0  0  0  0  0
   21.1778  -13.8249    0.0000 C   0  0  1  0  0  0  0  0  0  0  0  0
   21.8923  -14.2374    0.0000 C   0  0  1  0  0  0  0  0  0  0  0  0
   22.6067  -13.8249    0.0000 C   0  0  2  0  0  0  0  0  0  0  0  0
   22.6067  -12.9998    0.0000 C   0  0  1  0  0  0  0  0  0  0  0  0
   21.8923  -15.0624    0.0000 O   0  0  0  0  0  0  0  0  0  0  0  0
   23.3212  -12.5873    0.0000 O   0  0  0  0  0  0  0  0  0  0  0  0
   23.3212  -14.2374    0.0000 O   0  0  0  0  0  0  0  0  0  0  0  0
   21.8923  -11.7623    0.0000 C   0  0  0  0  0  0  0  0  0  0  0  0
   21.1778  -11.3498    0.0000 N   0  3  0  0  0  0  0  0  0  0  0  0
   22.6067  -11.3498    0.0000 C   0  0  0  0  0  0  0  0  0  0  0  0
   22.6067  -10.5248    0.0000 O   0  0  0  0  0  0  0  0  0  0  0  0
   23.3212  -10.1123    0.0000 P   0  0  0  0  0  0  0  0  0  0  0  0
   24.0357  -10.5248    0.0000 O   0  5  0  0  0  0  0  0  0  0  0  0
   23.3212   -9.2873    0.0000 O   0  0  0  0  0  0  0  0  0  0  0  0
   23.5347  -10.9092    0.0000 O   0  5  0  0  0  0  0  0  0  0  0  0
  1  2  1  0  0  0  0
  2  3  1  0  0  0  0
  3  4  1  0  0  0  0
  4  5  1  0  0  0  0
  5  6  1  0  0  0  0
  1  6  1  0  0  0  0
  1  7  1  6  0  0  0
  5  8  1  6  0  0  0
  2  9  1  1  0  0  0
  4 10  1  1  0  0  0
 10 11  1  0  0  0  0
  6 12  1  1  0  0  0
 13 12  1  1  0  0  0
 14 13  1  0  0  0  0
 13 15  1  0  0  0  0
 15 16  1  0  0  0  0
 16 17  1  0  0  0  0
 17 18  1  0  0  0  0
 14 18  1  0  0  0  0
 16 19  1  1  0  0  0
 14 20  1  1  0  0  0
 18 21  1  1  0  0  0
 19 22  1  0  0  0  0
 17 23  1  1  0  0  0
 24 25  1  0  0  0  0
 25 26  1  0  0  0  0
 26 27  1  0  0  0  0
 27 28  1  0  0  0  0
 28 29  1  0  0  0  0
 24 29  1  0  0  0  0
 26 20  1  1  0  0  0
 26 21  1  6  0  0  0
 27 30  1  1  0  0  0
 29 31  1  6  0  0  0
 28 32  1  6  0  0  0
 24 33  1  6  0  0  0
 33 34  1  0  0  0  0
 33 35  1  0  0  0  0
 35 36  1  0  0  0  0
 36 37  1  0  0  0  0
 37 38  1  0  0  0  0
 37 39  2  0  0  0  0
 37 40  1  0  0  0  0
M  CHG  5   9   1  10   1  34   1  38  -1  40  -1
M  END

>  <ACTIVITY>
5.00
$$$$
50207

  Mrv0541 05041708512D          

 25 27  0  0  1  0            999 V2000
    0.0000   -0.4125    0.0000 C   0  0  0  0  0  0  0  0  0  0  0  0
   -0.7145   -0.8250    0.0000 C   0  0  0  0  0  0  0  0  0  0  0  0
    0.0000    0.4125    0.0000 C   0  0  0  0  0  0  0  0  0  0  0  0
    0.7145   -0.8250    0.0000 C   0  0  0  0  0  0  0  0  0  0  0  0
    0.7145    0.8250    0.0000 O   0  0  0  0  0  0  0  0  0  0  0  0
    1.4289   -0.4125    0.0000 C   0  0  0  0  0  0  0  0  0  0  0  0
   -1.4289   -0.4125    0.0000 C   0  0  0  0  0  0  0  0  0  0  0  0
    1.4289    0.4125    0.0000 C   0  0  1  0  0  0  0  0  0  0  0  0
   -1.4289    0.4125    0.0000 C   0  0  0  0  0  0  0  0  0  0  0  0
    0.7145   -1.6500    0.0000 O   0  0  0  0  0  0  0  0  0  0  0  0
   -0.7145   -1.6500    0.0000 O   0  0  0  0  0  0  0  0  0  0  0  0
    2.1434    0.8250    0.0000 C   0  0  0  0  0  0  0  0  0  0  0  0
   -2.1434    0.8250    0.0000 O   0  0  0  0  0  0  0  0  0  0  0  0
    2.1434    1.6500    0.0000 C   0  0  0  0  0  0  0  0  0  0  0  0
    2.8579    0.4125    0.0000 C   0  0  0  0  0  0  0  0  0  0  0  0
    2.8579    2.0625    0.0000 C   0  0  0  0  0  0  0  0  0  0  0  0
    3.5724    0.8250    0.0000 C   0  0  0  0  0  0  0  0  0  0  0  0
    3.5724    1.6500    0.0000 C   0  0  0  0  0  0  0  0  0  0  0  0
    4.2868    2.0625    0.0000 O   0  0  0  0  0  0  0  0  0  0  0  0
   -0.7145    0.8250    0.0000 C   0  0  0  0  0  0  0  0  0  0  0  0
   -0.7145    1.6500    0.0000 C   0  0  0  0  0  0  0  0  0  0  0  0
   -1.4290    2.0625    0.0000 C   0  0  0  0  0  0  0  0  0  0  0  0
   -0.7145    3.3000    0.0000 C   0  0  0  0  0  0  0  0  0  0  0  0
   -1.4290    2.8875    0.0000 C   0  0  0  0  0  0  0  0  0  0  0  0
   -2.1434    3.3000    0.0000 C   0  0  0  0  0  0  0  0  0  0  0  0
  1  2  2  0  0  0  0
  2 11  1  0  0  0  0
  1  3  1  0  0  0  0
  1  4  1  0  0  0  0
  4 10  2  0  0  0  0
  3  5  1  0  0  0  0
  3 20  2  0  0  0  0
  4  6  1  0  0  0  0
  2  7  1  0  0  0  0
  5  8  1  0  0  0  0
  6  8  1  0  0  0  0
  8 12  1  6  0  0  0
  7  9  2  0  0  0  0
 20  9  1  0  0  0  0
  9 13  1  0  0  0  0
 12 14  2  0  0  0  0
 12 15  1  0  0  0  0
 14 16  1  0  0  0  0
 15 17  2  0  0  0  0
 16 18  2  0  0  0  0
 17 18  1  0  0  0  0
 18 19  1  0  0  0  0
 20 21  1  0  0  0  0
 21 22  1  0  0  0  0
 22 24  2  0  0  0  0
 24 23  1  0  0  0  0
 24 25  1  0  0  0  0
M  END

>  <ACTIVITY>
5.00
$$$$
35030

  Mrv0541 05041708512D          
 
 32 33  0  0  0  0            999 V2000
    0.4125    1.8073    0.0000 C   0  0  0  0  0  0  0  0  0  0  0  0
    0.9269    1.1623    0.0000 C   0  0  0  0  0  0  0  0  0  0  0  0
    0.7433    0.3580    0.0000 C   0  0  0  0  0  0  0  0  0  0  0  0
   -0.4125    1.8073    0.0000 C   0  0  0  0  0  0  0  0  0  0  0  0
   -0.7433    0.3580    0.0000 C   0  0  0  0  0  0  0  0  0  0  0  0
   -0.9269    1.1623    0.0000 C   0  0  0  0  0  0  0  0  0  0  0  0
    1.3481   -0.2032    0.0000 C   0  0  0  0  0  0  0  0  0  0  0  0
    2.1364    0.0400    0.0000 C   0  0  0  0  0  0  0  0  0  0  0  0
    2.3200    0.8443    0.0000 C   0  0  0  0  0  0  0  0  0  0  0  0
    1.7152    1.4054    0.0000 C   0  0  0  0  0  0  0  0  0  0  0  0
   -1.7152    1.4054    0.0000 C   0  0  0  0  0  0  0  0  0  0  0  0
   -2.3200    0.8443    0.0000 C   0  0  0  0  0  0  0  0  0  0  0  0
   -2.1364    0.0400    0.0000 C   0  0  0  0  0  0  0  0  0  0  0  0
   -1.3481   -0.2032    0.0000 C   0  0  0  0  0  0  0  0  0  0  0  0
    0.7145   -2.0625    0.0000 C   0  0  0  0  0  0  0  0  0  0  0  0
    1.4289   -3.3000    0.0000 C   0  0  0  0  0  0  0  0  0  0  0  0
    0.7145   -1.2375    0.0000 C   0  0  0  0  0  0  0  0  0  0  0  0
    1.4290   -0.8250    0.0000 C   0  0  0  0  0  0  0  0  0  0  0  0
    0.0000    0.0000    0.0000 N   0  3  0  0  0  0  0  0  0  0  0  0
   -0.7145   -0.4125    0.0000 H   0  0  0  0  0  0  0  0  0  0  0  0
    1.4289   -2.4750    0.0000 N   0  3  0  0  0  0  0  0  0  0  0  0
    2.1434   -2.8875    0.0000 H   0  0  0  0  0  0  0  0  0  0  0  0
    0.0000   -0.8250    0.0000 C   0  0  0  0  0  0  0  0  0  0  0  0
    2.1434   -2.0625    0.0000 C   0  0  0  0  0  0  0  0  0  0  0  0
    3.5723   -2.0625    0.0000 C   0  0  0  0  0  0  0  0  0  0  0  0
    4.2868   -2.4750    0.0000 C   0  0  0  0  0  0  0  0  0  0  0  0
    5.0012   -1.2375    0.0000 O   0  5  0  0  0  0  0  0  0  0  0  0
    4.2869    0.0000    0.0000 O   0  0  0  0  0  0  0  0  0  0  0  0
    4.2869   -0.8250    0.0000 C   0  0  0  0  0  0  0  0  0  0  0  0
    5.0012   -2.0625    0.0000 O   0  5  0  0  0  0  0  0  0  0  0  0
    4.2868   -3.3000    0.0000 O   0  0  0  0  0  0  0  0  0  0  0  0
    3.5724   -1.2375    0.0000 C   0  0  0  0  0  0  0  0  0  0  0  0
  3 19  1  0  0  0  0
 19  5  1  0  0  0  0
 19 23  1  0  0  0  0
 23 17  1  0  0  0  0
  1  4  1  0  0  0  0
  1  2  1  0  0  0  0
  2  3  2  0  0  0  0
  2 10  1  0  0  0  0
  3  7  1  0  0  0  0
  4  6  1  0  0  0  0
  5  6  2  0  0  0  0
  5 14  1  0  0  0  0
  6 11  1  0  0  0  0
  7  8  2  0  0  0  0
  8  9  1  0  0  0  0
  9 10  2  0  0  0  0
 11 12  2  0  0  0  0
 12 13  1  0  0  0  0
 13 14  2  0  0  0  0
 17 15  1  0  0  0  0
 15 21  1  0  0  0  0
 21 16  1  0  0  0  0
 21 24  1  0  0  0  0
 17 18  1  0  0  0  0
 19 20  1  0  0  0  0
 21 22  1  0  0  0  0
 25 32  2  0  0  0  0
 26 25  1  0  0  0  0
 30 26  1  0  0  0  0
 26 31  2  0  0  0  0
 27 29  1  0  0  0  0
 29 28  2  0  0  0  0
 29 32  1  0  0  0  0
M  CHG  4  19   1  21   1  27  -1  30  -1
M  END

>  <ACTIVITY>
5.00
$$$$
65086

  Mrv0541 05041708512D          

 47 49  0  0  1  0            999 V2000
    8.5478   -5.8040    0.0000 O   0  0  0  0  0  0  0  0  0  0  0  0
    9.2489   -5.3914    0.0000 C   0  0  1  0  0  0  0  0  0  0  0  0
    9.9915   -5.8452    0.0000 C   0  0  1  0  0  0  0  0  0  0  0  0
   10.6927   -5.4327    0.0000 C   0  0  0  0  0  0  0  0  0  0  0  0
   10.6927   -4.6077    0.0000 C   0  0  1  0  0  0  0  0  0  0  0  0
    9.9915   -4.1952    0.0000 C   0  0  2  0  0  0  0  0  0  0  0  0
    9.2489   -4.6077    0.0000 C   0  0  2  0  0  0  0  0  0  0  0  0
    9.9915   -6.6702    0.0000 N   0  0  0  0  0  0  0  0  0  0  0  0
    8.5478   -4.1952    0.0000 O   0  0  0  0  0  0  0  0  0  0  0  0
   11.4352   -4.1952    0.0000 N   0  3  0  0  0  0  0  0  0  0  0  0
    9.9915   -3.3703    0.0000 O   0  0  0  0  0  0  0  0  0  0  0  0
   10.6927   -2.9578    0.0000 C   0  0  1  0  0  0  0  0  0  0  0  0
   11.3940   -3.3703    0.0000 O   0  0  0  0  0  0  0  0  0  0  0  0
   12.0952   -2.9578    0.0000 C   0  0  1  0  0  0  0  0  0  0  0  0
   12.0952   -2.1328    0.0000 C   0  0  2  0  0  0  0  0  0  0  0  0
   11.3940   -1.7203    0.0000 C   0  0  1  0  0  0  0  0  0  0  0  0
   10.6927   -2.1328    0.0000 C   0  0  1  0  0  0  0  0  0  0  0  0
   12.8376   -3.3703    0.0000 C   0  0  0  0  0  0  0  0  0  0  0  0
    9.9502   -1.7203    0.0000 N   0  3  0  0  0  0  0  0  0  0  0  0
   11.3940   -0.8952    0.0000 O   0  0  0  0  0  0  0  0  0  0  0  0
   12.7964   -1.7203    0.0000 O   0  0  0  0  0  0  0  0  0  0  0  0
   12.8376   -4.1952    0.0000 N   0  3  0  0  0  0  0  0  0  0  0  0
    6.6504   -5.2265    0.0000 C   0  0  1  0  0  0  0  0  0  0  0  0
    7.4752   -5.2265    0.0000 C   0  0  2  0  0  0  0  0  0  0  0  0
    7.7227   -4.4427    0.0000 C   0  0  1  0  0  0  0  0  0  0  0  0
    7.0628   -3.9478    0.0000 O   0  0  0  0  0  0  0  0  0  0  0  0
    6.4029   -4.4427    0.0000 C   0  0  2  0  0  0  0  0  0  0  0  0
    5.6191   -4.1952    0.0000 C   0  0  0  0  0  0  0  0  0  0  0  0
    5.0004   -4.7315    0.0000 O   0  0  0  0  0  0  0  0  0  0  0  0
    6.1554   -5.8864    0.0000 O   0  0  0  0  0  0  0  0  0  0  0  0
    7.9703   -5.8864    0.0000 O   0  0  0  0  0  0  0  0  0  0  0  0
   10.7115   -7.0872    0.0000 C   0  0  0  0  0  0  0  0  0  0  0  0
   11.4262   -6.6746    0.0000 C   0  0  2  0  0  0  0  0  0  0  0  0
   12.1409   -7.0872    0.0000 C   0  0  0  0  0  0  0  0  0  0  0  0
   12.8555   -6.6746    0.0000 C   0  0  0  0  0  0  0  0  0  0  0  0
   13.5703   -7.0872    0.0000 N   0  0  0  0  0  0  0  0  0  0  0  0
   10.7110   -7.9124    0.0000 O   0  0  0  0  0  0  0  0  0  0  0  0
   11.4262   -5.8495    0.0000 O   0  0  0  0  0  0  0  0  0  0  0  0
   14.3056   -6.6773    0.0000 C   0  0  0  0  0  0  0  0  0  0  0  0
   15.0204   -7.0900    0.0000 C   0  0  0  0  0  0  0  0  0  0  0  0
   15.7352   -6.6773    0.0000 C   0  0  0  0  0  0  0  0  0  0  0  0
   16.4499   -7.0900    0.0000 C   0  0  1  0  0  0  0  0  0  0  0  0
   17.1648   -6.6773    0.0000 C   0  0  0  0  0  0  0  0  0  0  0  0
   17.8796   -7.0900    0.0000 O   0  5  0  0  0  0  0  0  0  0  0  0
   14.3117   -5.8521    0.0000 O   0  0  0  0  0  0  0  0  0  0  0  0
   16.4499   -7.9153    0.0000 N   0  3  0  0  0  0  0  0  0  0  0  0
   17.1648   -5.8520    0.0000 O   0  0  0  0  0  0  0  0  0  0  0  0
  2  1  1  6  0  0  0
  2  3  1  0  0  0  0
  3  4  1  0  0  0  0
  4  5  1  0  0  0  0
  5  6  1  0  0  0  0
  6  7  1  0  0  0  0
  2  7  1  0  0  0  0
  3  8  1  1  0  0  0
  7  9  1  1  0  0  0
  5 10  1  1  0  0  0
  6 11  1  6  0  0  0
 12 11  1  6  0  0  0
 12 13  1  0  0  0  0
 13 14  1  0  0  0  0
 14 15  1  0  0  0  0
 15 16  1  0  0  0  0
 16 17  1  0  0  0  0
 12 17  1  0  0  0  0
 14 18  1  1  0  0  0
 17 19  1  6  0  0  0
 16 20  1  1  0  0  0
 15 21  1  6  0  0  0
 18 22  1  0  0  0  0
 23 24  1  0  0  0  0
 24 25  1  0  0  0  0
 25 26  1  0  0  0  0
 26 27  1  0  0  0  0
 23 27  1  0  0  0  0
 27 28  1  1  0  0  0
 28 29  1  0  0  0  0
 23 30  1  6  0  0  0
 24 31  1  6  0  0  0
 25  9  1  1  0  0  0
  8 32  1  0  0  0  0
 32 33  1  0  0  0  0
 33 34  1  0  0  0  0
 34 35  1  0  0  0  0
 35 36  1  0  0  0  0
 32 37  2  0  0  0  0
 33 38  1  1  0  0  0
 36 39  1  0  0  0  0
 39 40  1  0  0  0  0
 40 41  1  0  0  0  0
 41 42  1  0  0  0  0
 42 43  1  0  0  0  0
 43 44  1  0  0  0  0
 39 45  2  0  0  0  0
 42 46  1  1  0  0  0
 43 47  2  0  0  0  0
M  CHG  5  10   1  19   1  22   1  44  -1  46   1
M  END

>  <ACTIVITY>
5.00
$$$$
65558

  Mrv0541 05041708512D          

 32 34  0  0  0  0            999 V2000
   -1.8545   -3.2108    0.0000 C   0  0  0  0  0  0  0  0  0  0  0  0
   -1.0295   -3.2150    0.0000 C   0  0  0  0  0  0  0  0  0  0  0  0
   -0.6136   -2.5079    0.0000 C   0  0  1  0  0  0  0  0  0  0  0  0
   -1.0221   -1.7880    0.0000 C   0  0  1  0  0  0  0  0  0  0  0  0
   -1.8483   -1.7866    0.0000 C   0  0  1  0  0  0  0  0  0  0  0  0
   -2.2636   -2.4993    0.0000 C   0  0  0  0  0  0  0  0  0  0  0  0
   -3.0844   -2.6165    0.0000 C   0  0  0  0  0  0  0  0  0  0  0  0
   -2.1478   -1.0155    0.0000 C   0  0  0  0  0  0  0  0  0  0  0  0
   -3.6910   -2.0518    0.0000 O   0  0  0  0  0  0  0  0  0  0  0  0
   -3.6204   -1.2282    0.0000 C   0  0  0  0  0  0  0  0  0  0  0  0
   -2.9396   -0.7701    0.0000 C   0  0  0  0  0  0  0  0  0  0  0  0
   -2.9919    0.0523    0.0000 C   0  0  0  0  0  0  0  0  0  0  0  0
   -3.7363    0.4174    0.0000 C   0  0  0  0  0  0  0  0  0  0  0  0
   -4.4213   -0.0536    0.0000 C   0  0  0  0  0  0  0  0  0  0  0  0
   -4.3617   -0.8743    0.0000 C   0  0  0  0  0  0  0  0  0  0  0  0
   -3.7979    1.2404    0.0000 C   0  0  0  0  0  0  0  0  0  0  0  0
   -3.1115    1.6999    0.0000 O   0  0  0  0  0  0  0  0  0  0  0  0
   -4.5382    1.5960    0.0000 O   0  0  0  0  0  0  0  0  0  0  0  0
    0.2114   -2.5132    0.0000 Br  0  0  0  0  0  0  0  0  0  0  0  0
   -1.2325   -0.9902    0.0000 C   0  0  0  0  0  0  0  0  0  0  0  0
   -0.3045   -1.3732    0.0000 C   0  0  0  0  0  0  0  0  0  0  0  0
   -0.3045   -0.5483    0.0000 C   0  0  0  0  0  0  0  0  0  0  0  0
    0.4087   -0.1376    0.0000 C   0  0  0  0  0  0  0  0  0  0  0  0
    0.4087    0.6873    0.0000 C   0  0  0  0  0  0  0  0  0  0  0  0
    1.1257    1.1018    0.0000 C   0  0  0  0  0  0  0  0  0  0  0  0
   -0.3045    1.1018    0.0000 C   0  0  0  0  0  0  0  0  0  0  0  0
    1.1257    1.9268    0.0000 C   0  0  0  0  0  0  0  0  0  0  0  0
    1.8389    2.3373    0.0000 C   0  0  0  0  0  0  0  0  0  0  0  0
    1.8389    3.1623    0.0000 C   0  0  0  0  0  0  0  0  0  0  0  0
    2.5522    3.5769    0.0000 C   0  0  0  0  0  0  0  0  0  0  0  0
    1.1257    3.5767    0.0000 C   0  0  0  0  0  0  0  0  0  0  0  0
   -2.6733   -1.7823    0.0000 H   0  0  0  0  0  0  0  0  0  0  0  0
  1  2  1  0  0  0  0
  2  3  1  0  0  0  0
  3  4  1  0  0  0  0
  3 19  1  1  0  0  0
  4  5  1  0  0  0  0
  4 20  1  1  0  0  0
  4 21  1  0  0  0  0
  5  6  1  0  0  0  0
  5  8  1  0  0  0  0
  5 32  1  6  0  0  0
  6  7  2  0  0  0  0
  7  9  1  0  0  0  0
  8 11  1  0  0  0  0
  9 10  1  0  0  0  0
 10 11  2  0  0  0  0
 15 10  1  0  0  0  0
 11 12  1  0  0  0  0
 12 13  2  0  0  0  0
 13 14  1  0  0  0  0
 13 16  1  0  0  0  0
 14 15  2  0  0  0  0
 16 17  2  0  0  0  0
 16 18  1  0  0  0  0
 21 22  1  0  0  0  0
 22 23  1  0  0  0  0
 23 24  2  0  0  0  0
 24 25  1  0  0  0  0
 24 26  1  0  0  0  0
 25 27  1  0  0  0  0
 27 28  1  0  0  0  0
 28 29  2  0  0  0  0
 29 30  1  0  0  0  0
 29 31  1  0  0  0  0
  1  6  1  0  0  0  0
M  END

>  <ACTIVITY>
5.00
$$$$
75931

  Mrv0541 05041708512D          

 79 88  0  0  1  0            999 V2000
   10.9024  -13.0817    0.0000 C   0  0  2  0  0  0  0  0  0  0  0  0
   10.9024  -13.9067    0.0000 C   0  0  0  0  0  0  0  0  0  0  0  0
   10.1878  -12.6692    0.0000 C   0  0  0  0  0  0  0  0  0  0  0  0
   10.1878  -14.3193    0.0000 C   0  0  0  0  0  0  0  0  0  0  0  0
    9.4733  -13.0817    0.0000 C   0  0  0  0  0  0  0  0  0  0  0  0
    9.4733  -13.9067    0.0000 C   0  0  2  0  0  0  0  0  0  0  0  0
   11.6169  -12.6692    0.0000 C   0  0  2  0  0  0  0  0  0  0  0  0
   12.3314  -13.0818    0.0000 C   0  0  1  0  0  0  0  0  0  0  0  0
   11.6169  -14.3193    0.0000 C   0  0  0  0  0  0  0  0  0  0  0  0
   12.3313  -13.9068    0.0000 C   0  0  0  0  0  0  0  0  0  0  0  0
   11.6170  -11.8442    0.0000 C   0  0  0  0  0  0  0  0  0  0  0  0
   12.3316  -11.4317    0.0000 C   0  0  0  0  0  0  0  0  0  0  0  0
   13.0459  -12.6693    0.0000 C   0  0  1  0  0  0  0  0  0  0  0  0
   13.0460  -11.8443    0.0000 C   0  0  1  0  0  0  0  0  0  0  0  0
   13.8304  -12.9244    0.0000 C   0  0  0  0  0  0  0  0  0  0  0  0
   14.3154  -12.2570    0.0000 C   0  0  1  0  0  0  0  0  0  0  0  0
   13.8307  -11.5895    0.0000 C   0  0  2  0  0  0  0  0  0  0  0  0
   15.1000  -12.0022    0.0000 O   0  0  0  0  0  0  0  0  0  0  0  0
   15.1002  -11.1773    0.0000 C   0  0  2  0  0  0  0  0  0  0  0  0
   14.3158  -10.9221    0.0000 C   0  0  1  0  0  0  0  0  0  0  0  0
   15.1005  -10.3523    0.0000 O   0  0  0  0  0  0  0  0  0  0  0  0
   15.8848  -11.4325    0.0000 C   0  0  0  0  0  0  0  0  0  0  0  0
   15.8852  -10.0976    0.0000 C   0  0  1  0  0  0  0  0  0  0  0  0
   16.3700  -10.7651    0.0000 C   0  0  0  0  0  0  0  0  0  0  0  0
   10.9035  -12.2616    0.0000 C   0  0  0  0  0  0  0  0  0  0  0  0
   12.3350  -12.2616    0.0000 H   0  0  0  0  0  0  0  0  0  0  0  0
   13.0507  -11.0190    0.0000 C   0  0  0  0  0  0  0  0  0  0  0  0
   14.0611  -10.1374    0.0000 C   0  0  0  0  0  0  0  0  0  0  0  0
   16.5979   -9.6835    0.0000 C   0  0  0  0  0  0  0  0  0  0  0  0
   17.3135  -10.0942    0.0000 O   0  0  0  0  0  0  0  0  0  0  0  0
   15.8837   -9.2695    0.0000 C   0  0  0  0  0  0  0  0  0  0  0  0
   11.6193  -13.4942    0.0000 H   0  0  0  0  0  0  0  0  0  0  0  0
   13.0507  -13.4942    0.0000 H   0  0  0  0  0  0  0  0  0  0  0  0
   13.8260  -12.4107    0.0000 H   0  0  0  0  0  0  0  0  0  0  0  0
   14.3131  -13.0866    0.0000 H   0  0  0  0  0  0  0  0  0  0  0  0
    8.7564  -14.3292    0.0000 O   0  0  0  0  0  0  0  0  0  0  0  0
    8.0403  -13.9195    0.0000 C   0  0  1  0  0  0  0  0  0  0  0  0
    7.3274  -14.3347    0.0000 C   0  0  1  0  0  0  0  0  0  0  0  0
    8.0371  -13.0944    0.0000 O   0  0  0  0  0  0  0  0  0  0  0  0
    6.6113  -13.9249    0.0000 C   0  0  2  0  0  0  0  0  0  0  0  0
    7.3211  -12.6846    0.0000 C   0  0  1  0  0  0  0  0  0  0  0  0
    6.6082  -13.0999    0.0000 C   0  0  1  0  0  0  0  0  0  0  0  0
    7.3305  -15.1597    0.0000 O   0  0  0  0  0  0  0  0  0  0  0  0
    6.6175  -15.5749    0.0000 C   0  0  2  0  0  0  0  0  0  0  0  0
    5.8984  -14.3400    0.0000 O   0  0  0  0  0  0  0  0  0  0  0  0
    5.9015  -15.1650    0.0000 O   0  0  0  0  0  0  0  0  0  0  0  0
    7.3179  -11.8597    0.0000 C   0  0  0  0  0  0  0  0  0  0  0  0
    5.8920  -12.6901    0.0000 O   0  0  0  0  0  0  0  0  0  0  0  0
    6.6205  -16.3998    0.0000 C   0  0  1  0  0  0  0  0  0  0  0  0
    5.9076  -16.8149    0.0000 C   0  0  1  0  0  0  0  0  0  0  0  0
    5.1886  -15.5801    0.0000 C   0  0  2  0  0  0  0  0  0  0  0  0
    5.1916  -16.4051    0.0000 C   0  0  2  0  0  0  0  0  0  0  0  0
    4.4721  -15.1643    0.0000 C   0  0  0  0  0  0  0  0  0  0  0  0
    5.9035  -17.6394    0.0000 O   0  0  0  0  0  0  0  0  0  0  0  0
    7.3349  -16.8044    0.0000 O   0  0  0  0  0  0  0  0  0  0  0  0
    4.4721  -16.8243    0.0000 O   0  0  0  0  0  0  0  0  0  0  0  0
    8.0308  -11.4564    0.0000 O   0  0  0  0  0  0  0  0  0  0  0  0
    5.8935  -11.8640    0.0000 C   0  0  1  0  0  0  0  0  0  0  0  0
    5.1798  -11.4502    0.0000 C   0  0  1  0  0  0  0  0  0  0  0  0
    6.6088  -11.4528    0.0000 O   0  0  0  0  0  0  0  0  0  0  0  0
    5.1814  -10.6251    0.0000 C   0  0  2  0  0  0  0  0  0  0  0  0
    6.6104  -10.6278    0.0000 C   0  0  1  0  0  0  0  0  0  0  0  0
    5.8966  -10.2139    0.0000 C   0  0  1  0  0  0  0  0  0  0  0  0
    7.3250  -10.2238    0.0000 C   0  0  0  0  0  0  0  0  0  0  0  0
    4.4621  -11.8540    0.0000 O   0  0  0  0  0  0  0  0  0  0  0  0
    5.8935   -9.3888    0.0000 O   0  0  0  0  0  0  0  0  0  0  0  0
    7.3262   -9.4037    0.0000 O   0  0  0  0  0  0  0  0  0  0  0  0
    4.4633  -10.2089    0.0000 O   0  0  0  0  0  0  0  0  0  0  0  0
    4.4633   -9.3838    0.0000 C   0  0  1  0  0  0  0  0  0  0  0  0
    3.7488   -8.9713    0.0000 C   0  0  1  0  0  0  0  0  0  0  0  0
    5.1778   -8.9713    0.0000 O   0  0  0  0  0  0  0  0  0  0  0  0
    3.7489   -8.1463    0.0000 C   0  0  2  0  0  0  0  0  0  0  0  0
    5.1778   -8.1463    0.0000 C   0  0  1  0  0  0  0  0  0  0  0  0
    4.4633   -7.7338    0.0000 C   0  0  1  0  0  0  0  0  0  0  0  0
    5.8922   -7.7338    0.0000 C   0  0  0  0  0  0  0  0  0  0  0  0
    5.8922   -6.9088    0.0000 O   0  0  0  0  0  0  0  0  0  0  0  0
    4.4633   -6.9088    0.0000 O   0  0  0  0  0  0  0  0  0  0  0  0
    3.0318   -7.7437    0.0000 O   0  0  0  0  0  0  0  0  0  0  0  0
    3.0318   -9.3938    0.0000 O   0  0  0  0  0  0  0  0  0  0  0  0
  3  1  1  0  0  0  0
  4  2  1  0  0  0  0
  5  3  1  0  0  0  0
  6  4  1  0  0  0  0
  6  5  1  0  0  0  0
  7  1  1  0  0  0  0
  2  1  1  0  0  0  0
  9  2  2  0  0  0  0
 10  8  1  0  0  0  0
 10  9  1  0  0  0  0
 11  7  1  0  0  0  0
  8  7  1  0  0  0  0
 12 11  1  0  0  0  0
 13  8  1  0  0  0  0
 14 12  1  0  0  0  0
 15 13  1  0  0  0  0
 14 13  1  0  0  0  0
 16 15  1  0  0  0  0
 17 14  1  0  0  0  0
 18 16  1  0  0  0  0
 17 16  1  0  0  0  0
 19 18  1  0  0  0  0
 20 17  1  0  0  0  0
 20 19  1  0  0  0  0
 19 21  1  6  0  0  0
 19 22  1  1  0  0  0
 23 21  1  0  0  0  0
 24 22  1  0  0  0  0
 24 23  1  0  0  0  0
  1 25  1  1  0  0  0
  8 26  1  1  0  0  0
 14 27  1  1  0  0  0
 20 28  1  6  0  0  0
 29 23  1  0  0  0  0
 29 30  1  0  0  0  0
 23 31  1  1  0  0  0
  7 32  1  6  0  0  0
 13 33  1  6  0  0  0
 17 34  1  6  0  0  0
 16 35  1  6  0  0  0
  6 36  1  1  0  0  0
 37 36  1  1  0  0  0
 38 37  1  0  0  0  0
 39 37  1  0  0  0  0
 42 40  1  0  0  0  0
 42 41  1  0  0  0  0
 38 43  1  6  0  0  0
 40 38  1  0  0  0  0
 44 43  1  1  0  0  0
 40 45  1  1  0  0  0
 41 39  1  0  0  0  0
 41 47  1  1  0  0  0
 42 48  1  6  0  0  0
 49 44  1  0  0  0  0
 46 44  1  0  0  0  0
 50 49  1  0  0  0  0
 51 46  1  0  0  0  0
 52 50  1  0  0  0  0
 52 51  1  0  0  0  0
 51 53  1  6  0  0  0
 50 54  1  6  0  0  0
 49 55  1  6  0  0  0
 52 56  1  1  0  0  0
 47 57  1  0  0  0  0
 58 48  1  1  0  0  0
 59 58  1  0  0  0  0
 60 58  1  0  0  0  0
 61 59  1  0  0  0  0
 62 60  1  0  0  0  0
 63 61  1  0  0  0  0
 63 62  1  0  0  0  0
 62 64  1  1  0  0  0
 59 65  1  6  0  0  0
 63 66  1  6  0  0  0
 64 67  1  0  0  0  0
 61 68  1  1  0  0  0
 69 68  1  1  0  0  0
 70 69  1  0  0  0  0
 71 69  1  0  0  0  0
 72 70  1  0  0  0  0
 73 71  1  0  0  0  0
 74 72  1  0  0  0  0
 73 75  1  1  0  0  0
 74 73  1  0  0  0  0
 76 75  1  0  0  0  0
 74 77  1  6  0  0  0
 72 78  1  1  0  0  0
 70 79  1  6  0  0  0
M  END

>  <ACTIVITY>
5.00
$$$$
8708

  Mrv0541 05041708512D          

 64 67  0  0  0  0            999 V2000
    0.8062   -0.5677    0.0000 N   0  0  0  0  0  0  0  0  0  0  0  0
    1.6313   -0.5677    0.0000 C   0  0  0  0  0  0  0  0  0  0  0  0
    2.0438   -1.2822    0.0000 C   0  0  0  0  0  0  0  0  0  0  0  0
    0.3189   -1.8801    0.0000 C   0  0  0  0  0  0  0  0  0  0  0  0
    0.2229   -1.1511    0.0000 C   0  0  0  0  0  0  0  0  0  0  0  0
   -0.5510   -0.7464    0.0000 C   0  0  0  0  0  0  0  0  0  0  0  0
   -1.2055   -1.2487    0.0000 C   0  0  0  0  0  0  0  0  0  0  0  0
   -0.3356   -2.3824    0.0000 C   0  0  0  0  0  0  0  0  0  0  0  0
   -1.0978   -2.0666    0.0000 C   0  0  0  0  0  0  0  0  0  0  0  0
    1.0333   -2.2926    0.0000 S   0  0  0  0  0  0  0  0  0  0  0  0
    1.8302   -2.0791    0.0000 C   0  0  0  0  0  0  0  0  0  0  0  0
    2.2147    0.0157    0.0000 N   0  0  0  0  0  0  0  0  0  0  0  0
    2.0011    0.8126    0.0000 C   0  0  0  0  0  0  0  0  0  0  0  0
    3.0116   -0.1979    0.0000 C   0  0  0  0  0  0  0  0  0  0  0  0
    2.5845    1.3959    0.0000 C   0  0  0  0  0  0  0  0  0  0  0  0
    3.5949    0.3855    0.0000 C   0  0  0  0  0  0  0  0  0  0  0  0
    3.3814    1.1824    0.0000 N   0  0  0  0  0  0  0  0  0  0  0  0
    3.9648    1.7658    0.0000 C   0  0  0  0  0  0  0  0  0  0  0  0
    2.8407   -1.0687    0.0000 C   0  0  0  0  0  0  0  0  0  0  0  0
    2.4135   -2.6625    0.0000 C   0  0  0  0  0  0  0  0  0  0  0  0
    3.2104   -2.4490    0.0000 C   0  0  0  0  0  0  0  0  0  0  0  0
    3.4240   -1.6522    0.0000 C   0  0  0  0  0  0  0  0  0  0  0  0
    3.9648    2.5908    0.0000 C   0  0  0  0  0  0  0  0  0  0  0  0
    3.2503    3.0033    0.0000 O   0  0  0  0  0  0  0  0  0  0  0  0
    2.5359    2.5908    0.0000 C   0  0  0  0  0  0  0  0  0  0  0  0
    1.8214    3.0033    0.0000 C   0  0  0  0  0  0  0  0  0  0  0  0
    1.1069    2.5908    0.0000 O   0  0  0  0  0  0  0  0  0  0  0  0
    6.9727   -0.8148    0.0000 N   0  0  0  0  0  0  0  0  0  0  0  0
    7.7978   -0.8148    0.0000 C   0  0  0  0  0  0  0  0  0  0  0  0
    8.2103   -1.5293    0.0000 C   0  0  0  0  0  0  0  0  0  0  0  0
    6.4854   -2.1272    0.0000 C   0  0  0  0  0  0  0  0  0  0  0  0
    6.3894   -1.3982    0.0000 C   0  0  0  0  0  0  0  0  0  0  0  0
    5.6155   -0.9935    0.0000 C   0  0  0  0  0  0  0  0  0  0  0  0
    4.9610   -1.4958    0.0000 C   0  0  0  0  0  0  0  0  0  0  0  0
    5.8309   -2.6295    0.0000 C   0  0  0  0  0  0  0  0  0  0  0  0
    5.0687   -2.3137    0.0000 C   0  0  0  0  0  0  0  0  0  0  0  0
    7.1998   -2.5397    0.0000 S   0  0  0  0  0  0  0  0  0  0  0  0
    7.9967   -2.3262    0.0000 C   0  0  0  0  0  0  0  0  0  0  0  0
    8.3812   -0.2314    0.0000 N   0  0  0  0  0  0  0  0  0  0  0  0
    8.1676    0.5655    0.0000 C   0  0  0  0  0  0  0  0  0  0  0  0
    9.1781   -0.4450    0.0000 C   0  0  0  0  0  0  0  0  0  0  0  0
    8.7510    1.1488    0.0000 C   0  0  0  0  0  0  0  0  0  0  0  0
    9.7614    0.1384    0.0000 C   0  0  0  0  0  0  0  0  0  0  0  0
    9.5479    0.9353    0.0000 N   0  0  0  0  0  0  0  0  0  0  0  0
   10.1313    1.5187    0.0000 C   0  0  0  0  0  0  0  0  0  0  0  0
    9.0072   -1.3158    0.0000 C   0  0  0  0  0  0  0  0  0  0  0  0
    8.5800   -2.9096    0.0000 C   0  0  0  0  0  0  0  0  0  0  0  0
    9.3769   -2.6961    0.0000 C   0  0  0  0  0  0  0  0  0  0  0  0
    9.5905   -1.8993    0.0000 C   0  0  0  0  0  0  0  0  0  0  0  0
   10.1313    2.3437    0.0000 C   0  0  0  0  0  0  0  0  0  0  0  0
    9.4168    2.7562    0.0000 O   0  0  0  0  0  0  0  0  0  0  0  0
    8.7024    2.3437    0.0000 C   0  0  0  0  0  0  0  0  0  0  0  0
    7.9879    2.7562    0.0000 C   0  0  0  0  0  0  0  0  0  0  0  0
    7.2734    2.3437    0.0000 O   0  0  0  0  0  0  0  0  0  0  0  0
    2.9738   -4.7786    0.0000 O   0  5  0  0  0  0  0  0  0  0  0  0
    3.6883   -4.3661    0.0000 C   0  0  0  0  0  0  0  0  0  0  0  0
    4.4027   -4.7786    0.0000 C   0  0  0  0  0  0  0  0  0  0  0  0
    5.1172   -4.3661    0.0000 C   0  0  0  0  0  0  0  0  0  0  0  0
    5.8317   -4.7786    0.0000 C   0  0  0  0  0  0  0  0  0  0  0  0
    6.5461   -4.3661    0.0000 O   0  5  0  0  0  0  0  0  0  0  0  0
    5.8317   -5.6036    0.0000 O   0  0  0  0  0  0  0  0  0  0  0  0
    3.6883   -3.5411    0.0000 O   0  0  0  0  0  0  0  0  0  0  0  0
    7.6498   -3.5891    0.0000 H   0  3  0  0  0  0  0  0  0  0  0  0
    1.8868   -3.7326    0.0000 H   0  3  0  0  0  0  0  0  0  0  0  0
  1  2  2  0  0  0  0
  1  5  1  0  0  0  0
  2  3  1  0  0  0  0
 11 10  1  0  0  0  0
 10  4  1  0  0  0  0
  8  4  2  0  0  0  0
  4  5  1  0  0  0  0
  6  5  2  0  0  0  0
  6  7  1  0  0  0  0
  7  9  2  0  0  0  0
  9  8  1  0  0  0  0
  2 12  1  0  0  0  0
 12 13  1  0  0  0  0
 12 14  1  0  0  0  0
 13 15  1  0  0  0  0
 14 16  1  0  0  0  0
 16 17  1  0  0  0  0
 15 17  1  0  0  0  0
 17 18  1  0  0  0  0
 11 20  2  0  0  0  0
  3 11  1  0  0  0  0
 19  3  2  0  0  0  0
 20 21  1  0  0  0  0
 21 22  2  0  0  0  0
 19 22  1  0  0  0  0
 18 23  1  0  0  0  0
 23 24  1  0  0  0  0
 24 25  1  0  0  0  0
 25 26  1  0  0  0  0
 26 27  1  0  0  0  0
 28 29  2  0  0  0  0
 28 32  1  0  0  0  0
 29 30  1  0  0  0  0
 38 37  1  0  0  0  0
 37 31  1  0  0  0  0
 35 31  2  0  0  0  0
 31 32  1  0  0  0  0
 33 32  2  0  0  0  0
 33 34  1  0  0  0  0
 34 36  2  0  0  0  0
 36 35  1  0  0  0  0
 29 39  1  0  0  0  0
 39 40  1  0  0  0  0
 39 41  1  0  0  0  0
 40 42  1  0  0  0  0
 41 43  1  0  0  0  0
 43 44  1  0  0  0  0
 42 44  1  0  0  0  0
 44 45  1  0  0  0  0
 38 47  2  0  0  0  0
 30 38  1  0  0  0  0
 46 30  2  0  0  0  0
 47 48  1  0  0  0  0
 48 49  2  0  0  0  0
 46 49  1  0  0  0  0
 45 50  1  0  0  0  0
 50 51  1  0  0  0  0
 51 52  1  0  0  0  0
 52 53  1  0  0  0  0
 53 54  1  0  0  0  0
 55 56  1  0  0  0  0
 56 57  1  0  0  0  0
 57 58  2  0  0  0  0
 58 59  1  0  0  0  0
 59 60  1  0  0  0  0
 59 61  2  0  0  0  0
 56 62  2  0  0  0  0
M  CHG  4  55  -1  60  -1  63   1  64   1
M  END

>  <ACTIVITY>
5.00
$$$$
33600

  Mrv0541 05041708512D          

 10  9  0  0  1  0            999 V2000
    0.0000    0.0000    0.0000 B   0  0  0  0  0  0  0  0  0  0  0  0
   -0.7145    1.2375    0.0000 H   0  0  0  0  0  0  0  0  0  0  0  0
    0.7145   -1.2375    0.0000 H   0  0  0  0  0  0  0  0  0  0  0  0
    0.7145   -0.4125    0.0000 B   0  0  0  0  0  0  0  0  0  0  0  0
    1.4289    0.0000    0.0000 H   0  0  0  0  0  0  0  0  0  0  0  0
   -1.4289    0.0000    0.0000 H   0  0  0  0  0  0  0  0  0  0  0  0
    0.0000    0.8250    0.0000 B   0  0  0  0  0  0  0  0  0  0  0  0
    0.7145    1.2375    0.0000 H   0  0  0  0  0  0  0  0  0  0  0  0
   -0.7145   -0.4125    0.0000 B   0  0  0  0  0  0  0  0  0  0  0  0
   -0.7145   -1.2375    0.0000 H   0  0  0  0  0  0  0  0  0  0  0  0
  1  9  1  0  0  0  0
  2  7  1  0  0  0  0
  3  4  1  0  0  0  0
  1  7  1  0  0  0  0
  1  4  1  0  0  0  0
  4  5  1  0  0  0  0
  9  6  1  0  0  0  0
  7  8  1  0  0  0  0
  9 10  1  0  0  0  0
M  END

>  <ACTIVITY>
5.00
$$$$
47781

  Mrv0541 05041708512D          
 
 20 22  0  0  0  0            999 V2000
    0.0000    0.0000    0.0000 N   0  0  0  0  0  0  0  0  0  0  0  0
    0.0000   -0.8250    0.0000 C   0  0  0  0  0  0  0  0  0  0  0  0
    0.4125    1.8073    0.0000 C   0  0  0  0  0  0  0  0  0  0  0  0
    0.9269    1.1623    0.0000 C   0  0  0  0  0  0  0  0  0  0  0  0
    0.7433    0.3580    0.0000 C   0  0  0  0  0  0  0  0  0  0  0  0
   -0.4125    1.8073    0.0000 C   0  0  0  0  0  0  0  0  0  0  0  0
   -0.7433    0.3580    0.0000 C   0  0  0  0  0  0  0  0  0  0  0  0
   -0.9269    1.1623    0.0000 C   0  0  0  0  0  0  0  0  0  0  0  0
    1.3481   -0.2032    0.0000 C   0  0  0  0  0  0  0  0  0  0  0  0
    2.1364    0.0400    0.0000 C   0  0  0  0  0  0  0  0  0  0  0  0
    2.3200    0.8443    0.0000 C   0  0  0  0  0  0  0  0  0  0  0  0
    1.7152    1.4054    0.0000 C   0  0  0  0  0  0  0  0  0  0  0  0
   -1.7152    1.4054    0.0000 C   0  0  0  0  0  0  0  0  0  0  0  0
   -2.3200    0.8443    0.0000 C   0  0  0  0  0  0  0  0  0  0  0  0
   -2.1364    0.0400    0.0000 C   0  0  0  0  0  0  0  0  0  0  0  0
   -1.3481   -0.2032    0.0000 C   0  0  0  0  0  0  0  0  0  0  0  0
    0.7145   -1.2375    0.0000 C   0  0  0  0  0  0  0  0  0  0  0  0
    0.7145   -2.0625    0.0000 C   0  0  0  0  0  0  0  0  0  0  0  0
    1.4289   -2.4750    0.0000 N   0  0  0  0  0  0  0  0  0  0  0  0
    1.4289   -3.3000    0.0000 C   0  0  0  0  0  0  0  0  0  0  0  0
  5  1  1  0  0  0  0
  1  7  1  0  0  0  0
  1  2  1  0  0  0  0
  2 17  1  0  0  0  0
  3  6  1  0  0  0  0
  3  4  1  0  0  0  0
  4  5  2  0  0  0  0
  4 12  1  0  0  0  0
  5  9  1  0  0  0  0
  6  8  1  0  0  0  0
  7  8  2  0  0  0  0
  7 16  1  0  0  0  0
  8 13  1  0  0  0  0
  9 10  2  0  0  0  0
 10 11  1  0  0  0  0
 11 12  2  0  0  0  0
 13 14  2  0  0  0  0
 14 15  1  0  0  0  0
 15 16  2  0  0  0  0
 17 18  1  0  0  0  0
 18 19  1  0  0  0  0
 19 20  1  0  0  0  0
M  END

>  <ACTIVITY>
5.00
$$$$
28196

  Mrv0541 05041708522D          
 
 50 52  0  0  1  0            999 V2000
    1.4289   -0.4125    0.0000 C   0  0  1  0  0  0  0  0  0  0  0  0
    0.7145   -0.8250    0.0000 C   0  0  2  0  0  0  0  0  0  0  0  0
    0.7145    0.8250    0.0000 C   0  0  0  0  0  0  0  0  0  0  0  0
    0.7145   -1.6500    0.0000 C   0  0  1  0  0  0  0  0  0  0  0  0
    0.7145    1.6500    0.0000 C   0  0  2  0  0  0  0  0  0  0  0  0
    0.0000   -2.0625    0.0000 C   0  0  2  0  0  0  0  0  0  0  0  0
    0.0000    2.0625    0.0000 C   0  0  0  0  0  0  0  0  0  0  0  0
   -0.7145   -1.6500    0.0000 C   0  0  0  0  0  0  0  0  0  0  0  0
   -0.7145    1.6500    0.0000 C   0  0  1  0  0  0  0  0  0  0  0  0
   -0.7145   -0.8250    0.0000 O   0  0  0  0  0  0  0  0  0  0  0  0
   -0.7145    0.8250    0.0000 C   0  0  1  0  0  0  0  0  0  0  0  0
   -1.4289   -0.4125    0.0000 C   0  0  2  0  0  0  0  0  0  0  0  0
    2.1434   -0.8250    0.0000 O   0  0  0  0  0  0  0  0  0  0  0  0
    0.0000   -0.4125    0.0000 C   0  0  0  0  0  0  0  0  0  0  0  0
    2.8578   -0.4125    0.0000 C   0  0  1  0  0  0  0  0  0  0  0  0
    1.4289   -2.0625    0.0000 O   0  0  0  0  0  0  0  0  0  0  0  0
    3.5723   -0.8250    0.0000 C   0  0  1  0  0  0  0  0  0  0  0  0
    2.8578    0.4125    0.0000 O   0  0  0  0  0  0  0  0  0  0  0  0
    1.4289    2.0625    0.0000 C   0  0  0  0  0  0  0  0  0  0  0  0
    1.4289   -2.8875    0.0000 C   0  0  1  0  0  0  0  0  0  0  0  0
    0.0000   -2.8875    0.0000 C   0  0  0  0  0  0  0  0  0  0  0  0
    4.2868   -0.4125    0.0000 C   0  0  2  0  0  0  0  0  0  0  0  0
    3.5723   -1.6500    0.0000 O   0  0  0  0  0  0  0  0  0  0  0  0
    3.5723    0.8250    0.0000 C   0  0  1  0  0  0  0  0  0  0  0  0
    0.0000    2.8875    0.0000 O   0  0  0  0  0  0  0  0  0  0  0  0
    0.7144   -3.3000    0.0000 C   0  0  0  0  0  0  0  0  0  0  0  0
    2.1434   -3.3000    0.0000 O   0  0  0  0  0  0  0  0  0  0  0  0
   -1.4290   -2.0625    0.0000 O   0  0  0  0  0  0  0  0  0  0  0  0
    4.2868    0.4125    0.0000 C   0  0  0  0  0  0  0  0  0  0  0  0
    5.0013   -0.8250    0.0000 N   0  0  0  0  0  0  0  0  0  0  0  0
    3.5723    1.6500    0.0000 C   0  0  0  0  0  0  0  0  0  0  0  0
   -1.4290    2.0625    0.0000 C   0  0  0  0  0  0  0  0  0  0  0  0
    2.1434   -4.1250    0.0000 C   0  0  2  0  0  0  0  0  0  0  0  0
    5.7157   -0.4125    0.0000 C   0  0  0  0  0  0  0  0  0  0  0  0
    5.0013   -1.6500    0.0000 C   0  0  0  0  0  0  0  0  0  0  0  0
    0.0000    0.4125    0.0000 O   0  0  0  0  0  0  0  0  0  0  0  0
    1.4289   -4.5375    0.0000 C   0  0  2  0  0  0  0  0  0  0  0  0
    2.8578   -4.5375    0.0000 C   0  0  0  0  0  0  0  0  0  0  0  0
    1.4289   -5.3625    0.0000 O   0  0  0  0  0  0  0  0  0  0  0  0
    0.7144   -4.1250    0.0000 C   0  0  2  0  0  0  0  0  0  0  0  0
   -2.1435   -0.8250    0.0000 C   0  0  0  0  0  0  0  0  0  0  0  0
   -2.8579   -0.4125    0.0000 C   0  0  0  0  0  0  0  0  0  0  0  0
    0.7144   -4.9500    0.0000 O   0  0  0  0  0  0  0  0  0  0  0  0
   -0.0001   -5.3625    0.0000 C   0  0  0  0  0  0  0  0  0  0  0  0
    0.0000   -4.5375    0.0000 C   0  0  0  0  0  0  0  0  0  0  0  0
   -1.4289    0.4125    0.0000 C   0  0  2  0  0  0  0  0  0  0  0  0
    1.4289    0.4125    0.0000 C   0  0  1  0  0  0  0  0  0  0  0  0
    1.4289    1.2375    0.0000 O   0  0  0  0  0  0  0  0  0  0  0  0
   -2.1434    0.8249    0.0000 C   0  0  0  0  0  0  0  0  0  0  0  0
    2.1434    0.8250    0.0000 C   0  0  0  0  0  0  0  0  0  0  0  0
  1 13  1  6  0  0  0
  1 47  1  0  0  0  0
 47 50  1  6  0  0  0
  2  1  1  0  0  0  0
  2 14  1  6  0  0  0
 47  3  1  0  0  0  0
  2  4  1  0  0  0  0
  4 16  1  6  0  0  0
  3  5  1  0  0  0  0
  5 19  1  6  0  0  0
  4  6  1  0  0  0  0
  6 21  1  1  0  0  0
  5  7  1  0  0  0  0
  7 25  2  0  0  0  0
  6  8  1  0  0  0  0
  8 28  2  0  0  0  0
  9  7  1  0  0  0  0
  9 32  1  1  0  0  0
  8 10  1  0  0  0  0
 11  9  1  0  0  0  0
 11 36  1  1  0  0  0
 12 10  1  0  0  0  0
 12 41  1  6  0  0  0
 46 12  1  0  0  0  0
 11 46  1  0  0  0  0
 46 49  1  6  0  0  0
 15 13  1  6  0  0  0
 15 17  1  0  0  0  0
 15 18  1  0  0  0  0
 20 16  1  6  0  0  0
 17 22  1  0  0  0  0
 17 23  1  1  0  0  0
 18 24  1  0  0  0  0
 20 26  1  0  0  0  0
 20 27  1  0  0  0  0
 22 29  1  0  0  0  0
 22 30  1  6  0  0  0
 24 31  1  6  0  0  0
 24 29  1  0  0  0  0
 26 40  1  0  0  0  0
 27 33  1  0  0  0  0
 30 34  1  0  0  0  0
 30 35  1  0  0  0  0
 33 38  1  1  0  0  0
 33 37  1  0  0  0  0
 40 37  1  0  0  0  0
 37 39  1  6  0  0  0
 40 43  1  6  0  0  0
 40 45  1  1  0  0  0
 41 42  1  0  0  0  0
 43 44  1  0  0  0  0
 47 48  1  1  0  0  0
M  END

>  <ACTIVITY>
5.00
$$$$
66079

  Mrv0541 05041708522D          

 29 32  0  0  0  0            999 V2000
   12.7102   -8.2844    0.0000 C   0  0  0  0  0  0  0  0  0  0  0  0
   13.4280   -7.8703    0.0000 C   0  0  0  0  0  0  0  0  0  0  0  0
   13.4251   -7.0383    0.0000 C   0  0  0  0  0  0  0  0  0  0  0  0
   12.7084   -6.6284    0.0000 C   0  0  0  0  0  0  0  0  0  0  0  0
   11.4156   -8.4532    0.0000 C   0  0  0  0  0  0  0  0  0  0  0  0
   10.5905   -8.4557    0.0000 O   0  0  0  0  0  0  0  0  0  0  0  0
   11.9941   -7.8708    0.0000 C   0  0  0  0  0  0  0  0  0  0  0  0
   11.9915   -7.0459    0.0000 C   0  0  0  0  0  0  0  0  0  0  0  0
   11.4092   -6.4672    0.0000 C   0  0  0  0  0  0  0  0  0  0  0  0
   10.5842   -6.4700    0.0000 C   0  0  0  0  0  0  0  0  0  0  0  0
   10.0083   -7.8773    0.0000 C   0  0  0  0  0  0  0  0  0  0  0  0
   10.0080   -7.0560    0.0000 C   0  0  0  0  0  0  0  0  0  0  0  0
    9.2978   -6.6473    0.0000 C   0  0  0  0  0  0  0  0  0  0  0  0
    8.5873   -7.0589    0.0000 C   0  0  0  0  0  0  0  0  0  0  0  0
    8.5916   -7.8833    0.0000 C   0  0  0  0  0  0  0  0  0  0  0  0
    9.3024   -8.2882    0.0000 C   0  0  0  0  0  0  0  0  0  0  0  0
    9.3063   -9.1147    0.0000 O   0  0  0  0  0  0  0  0  0  0  0  0
    7.8781   -8.3004    0.0000 O   0  0  0  0  0  0  0  0  0  0  0  0
    7.1600   -7.8912    0.0000 C   0  0  0  0  0  0  0  0  0  0  0  0
   11.7343   -9.2158    0.0000 C   0  0  0  0  0  0  0  0  0  0  0  0
   12.7100   -9.1109    0.0000 O   0  0  0  0  0  0  0  0  0  0  0  0
   14.1444   -8.2824    0.0000 O   0  0  0  0  0  0  0  0  0  0  0  0
   14.1393   -6.6223    0.0000 O   0  0  0  0  0  0  0  0  0  0  0  0
   14.8566   -7.0328    0.0000 C   0  0  0  0  0  0  0  0  0  0  0  0
   11.7229   -5.7026    0.0000 O   0  0  0  0  0  0  0  0  0  0  0  0
   10.2634   -5.7082    0.0000 C   0  0  0  0  0  0  0  0  0  0  0  0
   11.4290   -7.2256    0.0000 O   0  0  0  0  0  0  0  0  0  0  0  0
    9.2965   -5.8208    0.0000 C   0  0  0  0  0  0  0  0  0  0  0  0
    8.5802   -5.4086    0.0000 O   0  0  0  0  0  0  0  0  0  0  0  0
 13 14  2  0  0  0  0
  3  4  2  0  0  0  0
 14 15  1  0  0  0  0
  4  8  1  0  0  0  0
 15 16  2  0  0  0  0
 16 11  1  0  0  0  0
  5  6  1  0  0  0  0
 16 17  1  0  0  0  0
  6 11  1  0  0  0  0
 15 18  1  0  0  0  0
  5  7  1  0  0  0  0
 18 19  1  0  0  0  0
  7  8  2  0  0  0  0
  5 20  1  0  0  0  0
  8  9  1  0  0  0  0
  1 21  1  0  0  0  0
  9 10  1  0  0  0  0
  2 22  1  0  0  0  0
 10 12  1  0  0  0  0
  3 23  1  0  0  0  0
  1  2  2  0  0  0  0
 23 24  1  0  0  0  0
  7  1  1  0  0  0  0
  9 25  2  0  0  0  0
 11 12  2  0  0  0  0
 10 26  1  0  0  0  0
  2  3  1  0  0  0  0
 10 27  1  0  0  0  0
  5 27  1  0  0  0  0
 12 13  1  0  0  0  0
 13 28  1  0  0  0  0
 28 29  1  0  0  0  0
M  END

>  <ACTIVITY>
5.00
$$$$
63288

  Mrv0541 05041708522D          

 37 38  0  0  1  0            999 V2000
    6.9971   -6.8847    0.0000 C   0  0  0  0  0  0  0  0  0  0  0  0
    7.7117   -7.2973    0.0000 C   0  0  1  0  0  0  0  0  0  0  0  0
    6.2827   -5.6471    0.0000 C   0  0  2  0  0  0  0  0  0  0  0  0
    6.2827   -4.8221    0.0000 C   0  0  1  0  0  0  0  0  0  0  0  0
    6.9971   -6.0597    0.0000 O   0  0  0  0  0  0  0  0  0  0  0  0
    6.9971   -4.4096    0.0000 C   0  0  1  0  0  0  0  0  0  0  0  0
    6.9971   -3.5845    0.0000 C   0  0  2  0  0  0  0  0  0  0  0  0
    7.7117   -3.1721    0.0000 C   0  0  0  0  0  0  0  0  0  0  0  0
    8.4262   -6.8847    0.0000 C   0  0  2  0  0  0  0  0  0  0  0  0
    8.4262   -3.5845    0.0000 C   0  0  1  0  0  0  0  0  0  0  0  0
    8.4262   -6.0597    0.0000 C   0  0  1  0  0  0  0  0  0  0  0  0
    8.4262   -4.4096    0.0000 C   0  0  0  0  0  0  0  0  0  0  0  0
    9.1406   -5.6471    0.0000 C   0  0  1  0  0  0  0  0  0  0  0  0
    5.5682   -6.0597    0.0000 C   0  0  0  0  0  0  0  0  0  0  0  0
    5.5682   -4.4096    0.0000 C   0  0  0  0  0  0  0  0  0  0  0  0
    4.8536   -5.6471    0.0000 C   0  0  0  0  0  0  0  0  0  0  0  0
    7.7117   -4.8221    0.0000 O   0  0  0  0  0  0  0  0  0  0  0  0
    6.2827   -7.2973    0.0000 O   0  0  0  0  0  0  0  0  0  0  0  0
    6.2827   -3.1721    0.0000 C   0  0  0  0  0  0  0  0  0  0  0  0
    7.7117   -8.1223    0.0000 C   0  0  0  0  0  0  0  0  0  0  0  0
    7.7117   -2.3470    0.0000 O   0  0  0  0  0  0  0  0  0  0  0  0
    9.1406   -7.2973    0.0000 O   0  0  0  0  0  0  0  0  0  0  0  0
    9.1406   -3.1721    0.0000 C   0  0  0  0  0  0  0  0  0  0  0  0
    7.7117   -5.6471    0.0000 C   0  0  0  0  0  0  0  0  0  0  0  0
    9.8551   -6.0597    0.0000 O   0  0  0  0  0  0  0  0  0  0  0  0
    9.8551   -4.4096    0.0000 C   0  0  0  0  0  0  0  0  0  0  0  0
    9.1406   -4.8221    0.0000 C   0  0  1  0  0  0  0  0  0  0  0  0
    9.1406   -3.9971    0.0000 O   0  0  0  0  0  0  0  0  0  0  0  0
    9.1406   -8.1060    0.0000 C   0  0  1  0  0  0  0  0  0  0  0  0
    9.8429   -8.5189    0.0000 C   0  0  0  0  0  0  0  0  0  0  0  0
    8.4377   -8.5097    0.0000 O   0  0  0  0  0  0  0  0  0  0  0  0
    9.8394   -9.3337    0.0000 C   0  0  1  0  0  0  0  0  0  0  0  0
    8.4282   -9.3210    0.0000 C   0  0  2  0  0  0  0  0  0  0  0  0
    9.1306   -9.7339    0.0000 C   0  0  2  0  0  0  0  0  0  0  0  0
   10.5507   -9.7517    0.0000 O   0  0  0  0  0  0  0  0  0  0  0  0
    7.7301   -9.7236    0.0000 C   0  0  0  0  0  0  0  0  0  0  0  0
    9.1220  -10.5576    0.0000 O   0  0  0  0  0  0  0  0  0  0  0  0
  1 18  2  0  0  0  0
  2  1  1  0  0  0  0
  2 20  1  1  0  0  0
  3 14  1  6  0  0  0
  3  4  1  0  0  0  0
  4 15  1  6  0  0  0
  3  5  1  0  0  0  0
  5  1  1  0  0  0  0
  4  6  1  0  0  0  0
  6 17  1  1  0  0  0
  6  7  1  0  0  0  0
  7 19  1  1  0  0  0
  7  8  1  0  0  0  0
  8 21  2  0  0  0  0
  9  2  1  0  0  0  0
  9 22  1  6  0  0  0
  8 10  1  0  0  0  0
 10 23  1  6  0  0  0
 11  9  1  0  0  0  0
 11 24  1  6  0  0  0
 10 12  1  0  0  0  0
 11 13  1  0  0  0  0
 13 25  1  6  0  0  0
 13 27  1  0  0  0  0
 12 27  1  0  0  0  0
 27 26  1  6  0  0  0
 14 16  1  0  0  0  0
 27 28  1  1  0  0  0
 29 22  1  1  0  0  0
 29 30  1  0  0  0  0
 29 31  1  0  0  0  0
 30 32  1  0  0  0  0
 31 33  1  0  0  0  0
 32 34  1  0  0  0  0
 32 35  1  6  0  0  0
 33 36  1  6  0  0  0
 34 37  1  1  0  0  0
 33 34  1  0  0  0  0
M  END

>  <ACTIVITY>
5.00
$$$$
63289

  Mrv0541 05041708522D          

 38 39  0  0  1  0            999 V2000
    6.9971   -6.8847    0.0000 C   0  0  0  0  0  0  0  0  0  0  0  0
    7.7117   -7.2973    0.0000 C   0  0  1  0  0  0  0  0  0  0  0  0
    6.2827   -5.6471    0.0000 C   0  0  2  0  0  0  0  0  0  0  0  0
    6.2827   -4.8221    0.0000 C   0  0  1  0  0  0  0  0  0  0  0  0
    6.9971   -6.0597    0.0000 O   0  0  0  0  0  0  0  0  0  0  0  0
    6.9971   -4.4096    0.0000 C   0  0  1  0  0  0  0  0  0  0  0  0
    6.9971   -3.5845    0.0000 C   0  0  2  0  0  0  0  0  0  0  0  0
    7.7117   -3.1721    0.0000 C   0  0  0  0  0  0  0  0  0  0  0  0
    8.4262   -6.8847    0.0000 C   0  0  2  0  0  0  0  0  0  0  0  0
    8.4262   -3.5845    0.0000 C   0  0  1  0  0  0  0  0  0  0  0  0
    8.4262   -6.0597    0.0000 C   0  0  1  0  0  0  0  0  0  0  0  0
    8.4262   -4.4096    0.0000 C   0  0  0  0  0  0  0  0  0  0  0  0
    9.1406   -5.6471    0.0000 C   0  0  1  0  0  0  0  0  0  0  0  0
    5.5682   -6.0597    0.0000 C   0  0  0  0  0  0  0  0  0  0  0  0
    5.5682   -4.4096    0.0000 C   0  0  0  0  0  0  0  0  0  0  0  0
    4.8536   -5.6471    0.0000 C   0  0  0  0  0  0  0  0  0  0  0  0
    7.7117   -4.8221    0.0000 O   0  0  0  0  0  0  0  0  0  0  0  0
    6.2827   -7.2973    0.0000 O   0  0  0  0  0  0  0  0  0  0  0  0
    6.2827   -3.1721    0.0000 C   0  0  0  0  0  0  0  0  0  0  0  0
    7.7117   -8.1223    0.0000 C   0  0  0  0  0  0  0  0  0  0  0  0
    7.7117   -2.3470    0.0000 O   0  0  0  0  0  0  0  0  0  0  0  0
    9.1406   -7.2973    0.0000 O   0  0  0  0  0  0  0  0  0  0  0  0
    9.1406   -3.1721    0.0000 C   0  0  0  0  0  0  0  0  0  0  0  0
    7.7117   -5.6471    0.0000 C   0  0  0  0  0  0  0  0  0  0  0  0
    9.8551   -6.0597    0.0000 O   0  0  0  0  0  0  0  0  0  0  0  0
    9.8551   -4.4096    0.0000 C   0  0  0  0  0  0  0  0  0  0  0  0
    9.1406   -4.8221    0.0000 C   0  0  1  0  0  0  0  0  0  0  0  0
    9.1406   -3.9971    0.0000 O   0  0  0  0  0  0  0  0  0  0  0  0
    9.1406   -8.1060    0.0000 C   0  0  1  0  0  0  0  0  0  0  0  0
    9.8429   -8.5189    0.0000 C   0  0  0  0  0  0  0  0  0  0  0  0
    8.4377   -8.5097    0.0000 O   0  0  0  0  0  0  0  0  0  0  0  0
    9.8394   -9.3337    0.0000 C   0  0  1  0  0  0  0  0  0  0  0  0
    8.4282   -9.3210    0.0000 C   0  0  2  0  0  0  0  0  0  0  0  0
    9.1306   -9.7339    0.0000 C   0  0  2  0  0  0  0  0  0  0  0  0
   10.5507   -9.7517    0.0000 O   0  0  0  0  0  0  0  0  0  0  0  0
    7.7301   -9.7236    0.0000 C   0  0  0  0  0  0  0  0  0  0  0  0
    9.1220  -10.5576    0.0000 O   0  0  0  0  0  0  0  0  0  0  0  0
   10.5444  -10.5767    0.0000 C   0  0  0  0  0  0  0  0  0  0  0  0
  1 18  2  0  0  0  0
  2  1  1  0  0  0  0
  2 20  1  1  0  0  0
  3 14  1  6  0  0  0
  3  4  1  0  0  0  0
  4 15  1  6  0  0  0
  3  5  1  0  0  0  0
  5  1  1  0  0  0  0
  4  6  1  0  0  0  0
  6 17  1  1  0  0  0
  6  7  1  0  0  0  0
  7 19  1  1  0  0  0
  7  8  1  0  0  0  0
  8 21  2  0  0  0  0
  9  2  1  0  0  0  0
  9 22  1  6  0  0  0
  8 10  1  0  0  0  0
 10 23  1  6  0  0  0
 11  9  1  0  0  0  0
 11 24  1  6  0  0  0
 10 12  1  0  0  0  0
 11 13  1  0  0  0  0
 13 25  1  6  0  0  0
 13 27  1  0  0  0  0
 12 27  1  0  0  0  0
 27 26  1  6  0  0  0
 14 16  1  0  0  0  0
 27 28  1  1  0  0  0
 29 22  1  1  0  0  0
 29 30  1  0  0  0  0
 29 31  1  0  0  0  0
 30 32  1  0  0  0  0
 31 33  1  0  0  0  0
 32 34  1  0  0  0  0
 32 35  1  6  0  0  0
 33 36  1  6  0  0  0
 34 37  1  1  0  0  0
 33 34  1  0  0  0  0
 35 38  1  0  0  0  0
M  END

>  <ACTIVITY>
5.00
$$$$
47780

  Mrv0541 05041708522D          
 
 22 24  0  0  0  0            999 V2000
    0.0000    0.0000    0.0000 N   0  0  0  0  0  0  0  0  0  0  0  0
    0.4125    1.8073    0.0000 C   0  0  0  0  0  0  0  0  0  0  0  0
    0.9269    1.1623    0.0000 C   0  0  0  0  0  0  0  0  0  0  0  0
    0.7433    0.3580    0.0000 C   0  0  0  0  0  0  0  0  0  0  0  0
   -0.4125    1.8073    0.0000 C   0  0  0  0  0  0  0  0  0  0  0  0
   -0.7433    0.3580    0.0000 C   0  0  0  0  0  0  0  0  0  0  0  0
   -0.9269    1.1623    0.0000 C   0  0  0  0  0  0  0  0  0  0  0  0
    1.3481   -0.2032    0.0000 C   0  0  0  0  0  0  0  0  0  0  0  0
    2.1364    0.0400    0.0000 C   0  0  0  0  0  0  0  0  0  0  0  0
    2.3200    0.8443    0.0000 C   0  0  0  0  0  0  0  0  0  0  0  0
    1.7152    1.4054    0.0000 C   0  0  0  0  0  0  0  0  0  0  0  0
   -1.7152    1.4054    0.0000 C   0  0  0  0  0  0  0  0  0  0  0  0
   -2.3200    0.8443    0.0000 C   0  0  0  0  0  0  0  0  0  0  0  0
   -2.1364    0.0400    0.0000 C   0  0  0  0  0  0  0  0  0  0  0  0
   -1.3481   -0.2032    0.0000 C   0  0  0  0  0  0  0  0  0  0  0  0
    2.7412   -0.5212    0.0000 Cl  0  0  0  0  0  0  0  0  0  0  0  0
    0.0000   -0.8250    0.0000 C   0  0  0  0  0  0  0  0  0  0  0  0
    0.7145   -1.2375    0.0000 C   0  0  0  0  0  0  0  0  0  0  0  0
    0.7145   -2.0625    0.0000 C   0  0  0  0  0  0  0  0  0  0  0  0
    1.4289   -2.4750    0.0000 N   0  0  0  0  0  0  0  0  0  0  0  0
    2.1434   -2.0625    0.0000 C   0  0  0  0  0  0  0  0  0  0  0  0
    1.4289   -3.3000    0.0000 C   0  0  0  0  0  0  0  0  0  0  0  0
  4  1  1  0  0  0  0
  1  6  1  0  0  0  0
  1 17  1  0  0  0  0
  2  5  1  0  0  0  0
  2  3  1  0  0  0  0
  3  4  2  0  0  0  0
  3 11  1  0  0  0  0
  4  8  1  0  0  0  0
  5  7  1  0  0  0  0
  6  7  2  0  0  0  0
  6 15  1  0  0  0  0
  7 12  1  0  0  0  0
  8  9  2  0  0  0  0
  9 10  1  0  0  0  0
  9 16  1  0  0  0  0
 10 11  2  0  0  0  0
 12 13  2  0  0  0  0
 13 14  1  0  0  0  0
 14 15  2  0  0  0  0
 17 18  1  0  0  0  0
 18 19  1  0  0  0  0
 19 20  1  0  0  0  0
 20 21  1  0  0  0  0
 20 22  1  0  0  0  0
M  END

>  <ACTIVITY>
5.00
$$$$
90405

  Mrv0541 05041708522D          

 25 26  0  0  0  0            999 V2000
    8.7894   -4.7270    0.0000 Cl  0  5  0  0  0  0  0  0  0  0  0  0
    6.7347   -2.4840    0.0000 C   0  0  0  0  0  0  0  0  0  0  0  0
    6.7347   -3.3090    0.0000 C   0  0  0  0  0  0  0  0  0  0  0  0
    7.4515   -3.7194    0.0000 C   0  0  0  0  0  0  0  0  0  0  0  0
    7.4515   -2.0692    0.0000 C   0  0  0  0  0  0  0  0  0  0  0  0
    8.1642   -2.4840    0.0000 C   0  0  0  0  0  0  0  0  0  0  0  0
    8.1607   -3.3090    0.0000 C   0  0  0  0  0  0  0  0  0  0  0  0
    8.8741   -3.7225    0.0000 O   0  0  0  0  0  0  0  0  0  0  0  0
    8.8812   -2.0723    0.0000 C   0  0  0  0  0  0  0  0  0  0  0  0
    9.5945   -2.4900    0.0000 C   0  0  0  0  0  0  0  0  0  0  0  0
    9.5870   -3.3129    0.0000 C   0  0  0  0  0  0  0  0  0  0  0  0
   10.2966   -3.7329    0.0000 C   0  0  0  0  0  0  0  0  0  0  0  0
   11.0135   -3.3258    0.0000 C   0  0  0  0  0  0  0  0  0  0  0  0
   11.0209   -2.5028    0.0000 C   0  0  0  0  0  0  0  0  0  0  0  0
   10.3113   -2.0870    0.0000 C   0  0  0  0  0  0  0  0  0  0  0  0
    6.0217   -3.7153    0.0000 N   0  0  0  0  0  0  0  0  0  0  0  0
    6.0174   -4.5405    0.0000 C   0  0  0  0  0  0  0  0  0  0  0  0
    5.3043   -3.3049    0.0000 C   0  0  0  0  0  0  0  0  0  0  0  0
   11.7185   -3.7402    0.0000 N   0  3  0  0  0  0  0  0  0  0  0  0
   11.7144   -4.5654    0.0000 C   0  0  0  0  0  0  0  0  0  0  0  0
   12.4317   -3.3214    0.0000 C   0  0  0  0  0  0  0  0  0  0  0  0
   12.4268   -4.9815    0.0000 C   0  0  0  0  0  0  0  0  0  0  0  0
   12.4255   -2.4963    0.0000 C   0  0  0  0  0  0  0  0  0  0  0  0
    6.7299   -4.9567    0.0000 C   0  0  0  0  0  0  0  0  0  0  0  0
    4.5913   -3.7201    0.0000 C   0  0  0  0  0  0  0  0  0  0  0  0
  6  5  1  0  0  0  0
  5  2  2  0  0  0  0
  2  3  1  0  0  0  0
 10 11  1  0  0  0  0
 11 12  2  0  0  0  0
 12 13  1  0  0  0  0
 13 14  1  0  0  0  0
 14 15  2  0  0  0  0
 15 10  1  0  0  0  0
  3  4  2  0  0  0  0
  3 16  1  0  0  0  0
  6  7  2  0  0  0  0
 16 17  1  0  0  0  0
  7  8  1  0  0  0  0
 16 18  1  0  0  0  0
  8 11  1  0  0  0  0
 13 19  2  0  0  0  0
 10  9  2  0  0  0  0
 19 20  1  0  0  0  0
  9  6  1  0  0  0  0
 19 21  1  0  0  0  0
  4  7  1  0  0  0  0
 20 22  1  0  0  0  0
 21 23  1  0  0  0  0
 17 24  1  0  0  0  0
 18 25  1  0  0  0  0
M  CHG  2   1  -1  19   1
M  END

>  <ACTIVITY>
5.00
$$$$
33603

  Mrv0541 05041708522D          

  3  2  0  0  0  0            999 V2000
   -0.7145   -0.1375    0.0000 B   0  0  0  0  0  0  0  0  0  0  0  0
    0.0000    0.2750    0.0000 B   0  0  0  0  0  0  0  0  0  0  0  0
    0.7145   -0.1375    0.0000 B   0  0  0  0  0  0  0  0  0  0  0  0
  1  2  2  0  0  0  0
  2  3  1  0  0  0  0
M  END

>  <ACTIVITY>
5.00
$$$$
64203

  Mrv0541 05041708522D          

 24 27  0  0  0  0            999 V2000
    7.7320   -6.2177    0.0000 N   0  0  0  0  0  0  0  0  0  0  0  0
    8.4587   -4.7644    0.0000 N   0  0  0  0  0  0  0  0  0  0  0  0
    7.6771   -4.8192    0.0000 C   0  0  0  0  0  0  0  0  0  0  0  0
    8.5683   -6.1904    0.0000 C   0  0  0  0  0  0  0  0  0  0  0  0
    8.9386   -5.4499    0.0000 C   0  0  0  0  0  0  0  0  0  0  0  0
    7.3069   -5.5595    0.0000 C   0  0  0  0  0  0  0  0  0  0  0  0
    7.3618   -6.9582    0.0000 C   0  0  0  0  0  0  0  0  0  0  0  0
    9.2951   -2.2687    0.0000 S   0  0  0  0  0  0  0  0  0  0  0  0
   10.0356   -2.6389    0.0000 C   0  0  0  0  0  0  0  0  0  0  0  0
   10.2000   -3.4068    0.0000 C   0  0  0  0  0  0  0  0  0  0  0  0
    9.6516   -4.0239    0.0000 C   0  0  0  0  0  0  0  0  0  0  0  0
    8.8289   -4.0239    0.0000 C   0  0  0  0  0  0  0  0  0  0  0  0
    8.3763   -3.4206    0.0000 C   0  0  0  0  0  0  0  0  0  0  0  0
    8.5410   -2.6115    0.0000 C   0  0  0  0  0  0  0  0  0  0  0  0
   10.6477   -2.0858    0.0000 C   0  0  0  0  0  0  0  0  0  0  0  0
   10.9935   -3.6992    0.0000 C   0  0  0  0  0  0  0  0  0  0  0  0
   11.6057   -3.1463    0.0000 C   0  0  0  0  0  0  0  0  0  0  0  0
   11.4327   -2.3396    0.0000 C   0  0  0  0  0  0  0  0  0  0  0  0
    7.9229   -2.0655    0.0000 C   0  0  0  0  0  0  0  0  0  0  0  0
    7.1405   -2.3273    0.0000 C   0  0  0  0  0  0  0  0  0  0  0  0
    6.9762   -3.1358    0.0000 C   0  0  0  0  0  0  0  0  0  0  0  0
    7.5941   -3.6824    0.0000 C   0  0  0  0  0  0  0  0  0  0  0  0
    6.1939   -3.3976    0.0000 S   0  0  0  0  0  0  0  0  0  0  0  0
    6.0294   -4.2061    0.0000 C   0  0  0  0  0  0  0  0  0  0  0  0
  4  1  1  0  0  0  0
  6  1  1  0  0  0  0
  7  1  1  0  0  0  0
  3  2  1  0  0  0  0
  5  2  1  0  0  0  0
 12  2  1  0  0  0  0
  6  3  1  0  0  0  0
  5  4  1  0  0  0  0
  9  8  1  0  0  0  0
 14  8  1  0  0  0  0
 11 10  1  0  0  0  0
 12 11  1  0  0  0  0
 13 12  1  0  0  0  0
 15  9  1  0  0  0  0
  9 10  2  0  0  0  0
 10 16  1  0  0  0  0
 16 17  2  0  0  0  0
 17 18  1  0  0  0  0
 15 18  2  0  0  0  0
 22 13  1  0  0  0  0
 13 14  2  0  0  0  0
 19 14  1  0  0  0  0
 19 20  2  0  0  0  0
 20 21  1  0  0  0  0
 21 22  2  0  0  0  0
 21 23  1  0  0  0  0
 23 24  1  0  0  0  0
M  END

>  <ACTIVITY>
5.00
$$$$
65800

  Mrv0541 05041708522D          

 14 15  0  0  0  0            999 V2000
   -1.3699    0.1873    0.0000 O   0  0  0  0  0  0  0  0  0  0  0  0
   -0.6586    0.5952    0.0000 C   0  0  0  0  0  0  0  0  0  0  0  0
   -0.6586    1.4194    0.0000 C   0  0  0  0  0  0  0  0  0  0  0  0
   -1.3699    1.8356    0.0000 C   0  0  0  0  0  0  0  0  0  0  0  0
   -2.0812    0.5952    0.0000 C   0  0  0  0  0  0  0  0  0  0  0  0
   -2.0858    1.4239    0.0000 C   0  0  0  0  0  0  0  0  0  0  0  0
   -2.8754    1.6757    0.0000 C   0  0  0  0  0  0  0  0  0  0  0  0
   -3.3588    1.0025    0.0000 C   0  0  0  0  0  0  0  0  0  0  0  0
   -2.8680    0.3349    0.0000 C   0  0  0  0  0  0  0  0  0  0  0  0
   -3.1344    2.4581    0.0000 O   0  0  0  0  0  0  0  0  0  0  0  0
   -4.1829    0.9979    0.0000 O   0  0  0  0  0  0  0  0  0  0  0  0
   -3.1182   -0.4503    0.0000 C   0  0  0  0  0  0  0  0  0  0  0  0
   -2.5634   -1.0598    0.0000 C   0  0  0  0  0  0  0  0  0  0  0  0
   -2.8137   -1.8450    0.0000 C   0  0  0  0  0  0  0  0  0  0  0  0
  1  2  1  0  0  0  0
  2  3  1  0  0  0  0
  6  7  2  0  0  0  0
  7  8  1  0  0  0  0
  8  9  1  0  0  0  0
  9  5  1  0  0  0  0
  3  4  2  0  0  0  0
  7 10  1  0  0  0  0
  5  6  1  0  0  0  0
  8 11  2  0  0  0  0
  9 12  2  0  0  0  0
  6  4  1  0  0  0  0
 12 13  1  0  0  0  0
  5  1  1  0  0  0  0
 13 14  2  0  0  0  0
M  END

>  <ACTIVITY>
5.00
$$$$
65801

  Mrv0541 05041708522D          

 14 15  0  0  0  0            999 V2000
   10.1180    0.0666    0.0000 O   0  0  0  0  0  0  0  0  0  0  0  0
   10.8293    0.4745    0.0000 C   0  0  0  0  0  0  0  0  0  0  0  0
   10.8293    1.2986    0.0000 C   0  0  0  0  0  0  0  0  0  0  0  0
   10.1180    1.7149    0.0000 C   0  0  0  0  0  0  0  0  0  0  0  0
    9.4068    0.4745    0.0000 C   0  0  0  0  0  0  0  0  0  0  0  0
    9.4022    1.3031    0.0000 C   0  0  0  0  0  0  0  0  0  0  0  0
    8.6126    1.5550    0.0000 C   0  0  0  0  0  0  0  0  0  0  0  0
    8.1292    0.8818    0.0000 C   0  0  0  0  0  0  0  0  0  0  0  0
    8.6200    0.2142    0.0000 C   0  0  0  0  0  0  0  0  0  0  0  0
    8.3536    2.3373    0.0000 O   0  0  0  0  0  0  0  0  0  0  0  0
    7.3051    0.8772    0.0000 O   0  0  0  0  0  0  0  0  0  0  0  0
    8.3698   -0.5711    0.0000 C   0  0  0  0  0  0  0  0  0  0  0  0
    7.5646   -0.7469    0.0000 C   0  0  0  0  0  0  0  0  0  0  0  0
    7.3143   -1.5321    0.0000 C   0  0  0  0  0  0  0  0  0  0  0  0
  1  2  1  0  0  0  0
  2  3  1  0  0  0  0
  6  7  2  0  0  0  0
  7  8  1  0  0  0  0
  8  9  1  0  0  0  0
  9  5  1  0  0  0  0
  3  4  2  0  0  0  0
  7 10  1  0  0  0  0
  5  6  1  0  0  0  0
  8 11  2  0  0  0  0
  9 12  2  0  0  0  0
  6  4  1  0  0  0  0
 12 13  1  0  0  0  0
  5  1  1  0  0  0  0
 13 14  2  0  0  0  0
M  END

>  <ACTIVITY>
5.00
$$$$
46414

  Mrv0541 05041708522D          

 42 45  0  0  1  0            999 V2000
    5.8302   -0.8380    0.0000 N   0  0  0  0  0  0  0  0  0  0  0  0
    5.8302   -0.0140    0.0000 C   0  0  0  0  0  0  0  0  0  0  0  0
    6.5485    0.3958    0.0000 C   0  0  0  0  0  0  0  0  0  0  0  0
    5.1159   -1.2520    0.0000 C   0  0  0  0  0  0  0  0  0  0  0  0
    4.3966   -0.8392    0.0000 C   0  0  2  0  0  0  0  0  0  0  0  0
    3.6925   -1.2449    0.0000 C   0  0  1  0  0  0  0  0  0  0  0  0
    4.3966   -0.0067    0.0000 O   0  0  0  0  0  0  0  0  0  0  0  0
    2.9694   -0.8300    0.0000 N   0  0  0  0  0  0  0  0  0  0  0  0
    3.6925   -2.0589    0.0000 C   0  0  0  0  0  0  0  0  0  0  0  0
    2.9694    0.0047    0.0000 C   0  0  0  0  0  0  0  0  0  0  0  0
    2.2635    0.4133    0.0000 O   0  0  0  0  0  0  0  0  0  0  0  0
    3.6937    0.4203    0.0000 O   0  0  0  0  0  0  0  0  0  0  0  0
    2.9687   -2.4784    0.0000 C   0  0  0  0  0  0  0  0  0  0  0  0
    2.9632   -3.2874    0.0000 C   0  0  0  0  0  0  0  0  0  0  0  0
    2.2488   -3.6967    0.0000 C   0  0  0  0  0  0  0  0  0  0  0  0
    1.5329   -3.2796    0.0000 C   0  0  0  0  0  0  0  0  0  0  0  0
    1.5413   -2.4497    0.0000 C   0  0  0  0  0  0  0  0  0  0  0  0
    2.2609   -2.0490    0.0000 C   0  0  0  0  0  0  0  0  0  0  0  0
    6.5418   -1.2522    0.0000 S   0  0  0  0  0  0  0  0  0  0  0  0
    6.1284   -1.9687    0.0000 O   0  0  0  0  0  0  0  0  0  0  0  0
    6.9523   -0.5429    0.0000 O   0  0  0  0  0  0  0  0  0  0  0  0
    7.2569   -1.6644    0.0000 C   0  0  0  0  0  0  0  0  0  0  0  0
    7.2390   -2.4979    0.0000 C   0  0  0  0  0  0  0  0  0  0  0  0
    7.9495   -2.9108    0.0000 C   0  0  0  0  0  0  0  0  0  0  0  0
    8.6609   -2.5066    0.0000 C   0  0  0  0  0  0  0  0  0  0  0  0
    8.6669   -1.6770    0.0000 C   0  0  0  0  0  0  0  0  0  0  0  0
    7.9597   -1.2657    0.0000 C   0  0  0  0  0  0  0  0  0  0  0  0
    7.2679   -0.0170    0.0000 C   0  0  0  0  0  0  0  0  0  0  0  0
    6.5485    1.2184    0.0000 C   0  0  0  0  0  0  0  0  0  0  0  0
    9.3716   -2.9235    0.0000 C   0  0  0  0  0  0  0  0  0  0  0  0
   10.0882   -2.5166    0.0000 O   0  0  0  0  0  0  0  0  0  0  0  0
    1.1287   -0.5515    0.0000 C   0  0  0  0  0  0  0  0  0  0  0  0
    1.4519    0.2181    0.0000 C   0  0  2  0  0  0  0  0  0  0  0  0
    0.3177   -0.4854    0.0000 C   0  0  1  0  0  0  0  0  0  0  0  0
    0.1245    0.3177    0.0000 C   0  0  2  0  0  0  0  0  0  0  0  0
   -0.7023    0.3821    0.0000 O   0  0  0  0  0  0  0  0  0  0  0  0
   -1.0186   -0.3880    0.0000 C   0  0  0  0  0  0  0  0  0  0  0  0
   -0.3846   -0.9214    0.0000 C   0  0  0  0  0  0  0  0  0  0  0  0
    0.3709   -1.3069    0.0000 H   0  0  0  0  0  0  0  0  0  0  0  0
   -0.0683    1.1195    0.0000 H   0  0  0  0  0  0  0  0  0  0  0  0
    0.8229    0.7491    0.0000 C   0  0  0  0  0  0  0  0  0  0  0  0
    1.4436    1.0597    0.0000 H   0  0  0  0  0  0  0  0  0  0  0  0
  9 13  1  0  0  0  0
 13 14  2  0  0  0  0
 14 15  1  0  0  0  0
 15 16  2  0  0  0  0
 16 17  1  0  0  0  0
 17 18  2  0  0  0  0
 18 13  1  0  0  0  0
  1 19  1  0  0  0  0
 19 20  2  0  0  0  0
 19 21  2  0  0  0  0
 19 22  1  0  0  0  0
 22 23  2  0  0  0  0
 23 24  1  0  0  0  0
 24 25  2  0  0  0  0
 25 26  1  0  0  0  0
 26 27  2  0  0  0  0
 27 22  1  0  0  0  0
  3 28  1  0  0  0  0
  3 29  1  0  0  0  0
 25 30  1  0  0  0  0
  1  2  1  0  0  0  0
 30 31  1  0  0  0  0
  3  2  1  0  0  0  0
  1  4  1  0  0  0  0
  4  5  1  0  0  0  0
  5  6  1  0  0  0  0
  5  7  1  6  0  0  0
  6  8  1  0  0  0  0
  6  9  1  6  0  0  0
  8 10  1  0  0  0  0
 10 11  1  0  0  0  0
 32 33  1  0  0  0  0
 33 41  1  0  0  0  0
 41 35  1  0  0  0  0
 34 32  1  0  0  0  0
 34 35  1  0  0  0  0
 35 36  1  0  0  0  0
 36 37  1  0  0  0  0
 37 38  1  0  0  0  0
 38 34  1  0  0  0  0
 34 39  1  1  0  0  0
 35 40  1  1  0  0  0
 33 11  1  0  0  0  0
 10 12  2  0  0  0  0
 33 42  1  1  0  0  0
M  END

>  <ACTIVITY>
5.00
$$$$
37943

  Mrv0541 05041708522D          

 82 82  0  0  1  0            999 V2000
    6.6359   -4.7642    0.0000 C   0  0  0  0  0  0  0  0  0  0  0  0
    7.3516   -4.3566    0.0000 C   0  0  0  0  0  0  0  0  0  0  0  0
    8.0635   -4.7733    0.0000 N   0  0  0  0  0  0  0  0  0  0  0  0
    7.3565   -3.5316    0.0000 O   0  0  0  0  0  0  0  0  0  0  0  0
    8.7828   -4.3665    0.0000 C   0  0  2  0  0  0  0  0  0  0  0  0
    9.4936   -4.7854    0.0000 C   0  0  0  0  0  0  0  0  0  0  0  0
   10.2118   -4.3793    0.0000 N   0  0  0  0  0  0  0  0  0  0  0  0
    9.4863   -5.6103    0.0000 O   0  0  0  0  0  0  0  0  0  0  0  0
    8.7828   -3.5415    0.0000 C   0  0  0  0  0  0  0  0  0  0  0  0
    8.0684   -3.1290    0.0000 C   0  0  0  0  0  0  0  0  0  0  0  0
    8.0684   -2.3040    0.0000 N   0  0  0  0  0  0  0  0  0  0  0  0
   10.9311   -4.7861    0.0000 C   0  0  2  0  0  0  0  0  0  0  0  0
   11.6419   -4.3672    0.0000 C   0  0  0  0  0  0  0  0  0  0  0  0
   12.3602   -4.7733    0.0000 N   0  0  0  0  0  0  0  0  0  0  0  0
   11.6347   -3.5422    0.0000 O   0  0  0  0  0  0  0  0  0  0  0  0
   10.9311   -5.6111    0.0000 C   0  0  1  0  0  0  0  0  0  0  0  0
   10.2167   -6.0236    0.0000 C   0  0  0  0  0  0  0  0  0  0  0  0
   11.6455   -6.0236    0.0000 O   0  0  0  0  0  0  0  0  0  0  0  0
   13.0795   -4.3665    0.0000 C   0  0  2  0  0  0  0  0  0  0  0  0
   13.7900   -4.7854    0.0000 C   0  0  0  0  0  0  0  0  0  0  0  0
   14.5083   -4.3793    0.0000 N   0  0  0  0  0  0  0  0  0  0  0  0
   13.7828   -5.6103    0.0000 O   0  0  0  0  0  0  0  0  0  0  0  0
   13.0795   -3.5415    0.0000 C   0  0  0  0  0  0  0  0  0  0  0  0
   12.3648   -3.1290    0.0000 C   0  0  0  0  0  0  0  0  0  0  0  0
   12.3648   -2.3040    0.0000 N   0  0  0  0  0  0  0  0  0  0  0  0
   15.2276   -4.7861    0.0000 C   0  0  2  0  0  0  0  0  0  0  0  0
   15.9384   -4.3672    0.0000 C   0  0  0  0  0  0  0  0  0  0  0  0
   16.6564   -4.7733    0.0000 N   0  0  0  0  0  0  0  0  0  0  0  0
   15.9309   -3.5422    0.0000 O   0  0  0  0  0  0  0  0  0  0  0  0
   15.2276   -5.6111    0.0000 C   0  0  0  0  0  0  0  0  0  0  0  0
   17.3757   -4.3665    0.0000 C   0  0  2  0  0  0  0  0  0  0  0  0
   18.0865   -4.7854    0.0000 C   0  0  0  0  0  0  0  0  0  0  0  0
   18.0792   -5.6103    0.0000 N   0  0  0  0  0  0  0  0  0  0  0  0
   18.8047   -4.3793    0.0000 O   0  0  0  0  0  0  0  0  0  0  0  0
   17.3757   -3.5415    0.0000 C   0  0  0  0  0  0  0  0  0  0  0  0
   16.6613   -3.1290    0.0000 C   0  0  0  0  0  0  0  0  0  0  0  0
   16.6613   -2.3040    0.0000 N   0  0  0  0  0  0  0  0  0  0  0  0
   18.7836   -6.0425    0.0000 C   0  0  1  0  0  0  0  0  0  0  0  0
   18.7617   -6.8672    0.0000 C   0  0  0  0  0  0  0  0  0  0  0  0
   18.0362   -7.2604    0.0000 N   0  0  0  0  0  0  0  0  0  0  0  0
   19.4647   -7.2986    0.0000 O   0  0  0  0  0  0  0  0  0  0  0  0
   19.5052   -5.6428    0.0000 C   0  0  0  0  0  0  0  0  0  0  0  0
   20.2124   -6.0679    0.0000 C   0  0  0  0  0  0  0  0  0  0  0  0
   17.9996   -8.0861    0.0000 C   0  0  2  0  0  0  0  0  0  0  0  0
   17.2674   -8.4664    0.0000 C   0  0  0  0  0  0  0  0  0  0  0  0
   17.2308   -9.2906    0.0000 N   0  0  0  0  0  0  0  0  0  0  0  0
   16.5721   -8.0224    0.0000 O   0  0  0  0  0  0  0  0  0  0  0  0
   18.6988   -8.5237    0.0000 C   0  0  0  0  0  0  0  0  0  0  0  0
   18.6694   -9.3482    0.0000 C   0  0  0  0  0  0  0  0  0  0  0  0
   16.5043   -9.6844    0.0000 C   0  0  2  0  0  0  0  0  0  0  0  0
   15.8010   -9.2530    0.0000 C   0  0  0  0  0  0  0  0  0  0  0  0
   15.0757   -9.6462    0.0000 N   0  0  0  0  0  0  0  0  0  0  0  0
   15.8231   -8.4283    0.0000 O   0  0  0  0  0  0  0  0  0  0  0  0
   16.4896  -10.5093    0.0000 C   0  0  0  0  0  0  0  0  0  0  0  0
   17.1965  -10.9345    0.0000 C   0  0  0  0  0  0  0  0  0  0  0  0
   17.1818  -11.7592    0.0000 N   0  0  0  0  0  0  0  0  0  0  0  0
   14.3639   -9.2267    0.0000 C   0  0  2  0  0  0  0  0  0  0  0  0
   14.3711   -8.4017    0.0000 C   0  0  0  0  0  0  0  0  0  0  0  0
   13.6606   -7.9828    0.0000 N   0  0  0  0  0  0  0  0  0  0  0  0
   15.0894   -7.9956    0.0000 O   0  0  0  0  0  0  0  0  0  0  0  0
   13.6493   -9.6392    0.0000 C   0  0  0  0  0  0  0  0  0  0  0  0
   13.6493  -10.4642    0.0000 C   0  0  0  0  0  0  0  0  0  0  0  0
   12.9349  -10.8767    0.0000 N   0  0  0  0  0  0  0  0  0  0  0  0
   13.6531   -7.1565    0.0000 C   0  0  2  0  0  0  0  0  0  0  0  0
   14.3639   -6.7376    0.0000 C   0  0  0  0  0  0  0  0  0  0  0  0
   14.3564   -5.9127    0.0000 O   0  0  0  0  0  0  0  0  0  0  0  0
   15.0819   -7.1438    0.0000 N   0  0  0  0  0  0  0  0  0  0  0  0
   12.9315   -6.7568    0.0000 C   0  0  1  0  0  0  0  0  0  0  0  0
   12.2243   -7.1820    0.0000 C   0  0  0  0  0  0  0  0  0  0  0  0
   12.9168   -5.9319    0.0000 O   0  0  0  0  0  0  0  0  0  0  0  0
   15.9420   -6.0236    0.0000 C   0  0  0  0  0  0  0  0  0  0  0  0
    6.6360   -5.5892    0.0000 C   0  0  0  0  0  0  0  0  0  0  0  0
    7.3506   -6.0015    0.0000 C   0  0  0  0  0  0  0  0  0  0  0  0
    7.3508   -6.8265    0.0000 C   0  0  0  0  0  0  0  0  0  0  0  0
    8.0653   -7.2387    0.0000 C   0  0  1  0  0  0  0  0  0  0  0  0
    8.0655   -8.0637    0.0000 C   0  0  0  0  0  0  0  0  0  0  0  0
    8.7797   -6.8262    0.0000 C   0  0  0  0  0  0  0  0  0  0  0  0
    8.7801   -8.4762    0.0000 R   0  0  0  0  0  0  0  0  0  0  0  0
   20.1977   -6.8927    0.0000 C   0  0  0  0  0  0  0  0  0  0  0  0
   20.9340   -5.6681    0.0000 C   0  0  0  0  0  0  0  0  0  0  0  0
   17.9408   -9.7351    0.0000 C   0  0  0  0  0  0  0  0  0  0  0  0
   19.3688   -9.7859    0.0000 C   0  0  0  0  0  0  0  0  0  0  0  0
  1  2  1  0  0  0  0
  2  3  1  0  0  0  0
  2  4  2  0  0  0  0
  5  3  1  1  0  0  0
  5  6  1  0  0  0  0
  6  7  1  0  0  0  0
  6  8  2  0  0  0  0
  5  9  1  0  0  0  0
  9 10  1  0  0  0  0
 10 11  1  0  0  0  0
 12  7  1  6  0  0  0
 12 13  1  0  0  0  0
 13 14  1  0  0  0  0
 13 15  2  0  0  0  0
 12 16  1  0  0  0  0
 16 17  1  0  0  0  0
 16 18  1  6  0  0  0
 19 14  1  1  0  0  0
 19 20  1  0  0  0  0
 20 21  1  0  0  0  0
 20 22  2  0  0  0  0
 19 23  1  0  0  0  0
 23 24  1  0  0  0  0
 24 25  1  0  0  0  0
 26 21  1  6  0  0  0
 26 27  1  0  0  0  0
 27 28  1  0  0  0  0
 27 29  2  0  0  0  0
 26 30  1  0  0  0  0
 31 28  1  1  0  0  0
 31 32  1  0  0  0  0
 32 33  1  0  0  0  0
 32 34  2  0  0  0  0
 31 35  1  0  0  0  0
 35 36  1  0  0  0  0
 36 37  1  0  0  0  0
 38 33  1  6  0  0  0
 38 39  1  0  0  0  0
 39 40  1  0  0  0  0
 39 41  2  0  0  0  0
 38 42  1  0  0  0  0
 42 43  1  0  0  0  0
 44 40  1  1  0  0  0
 44 45  1  0  0  0  0
 45 46  1  0  0  0  0
 45 47  2  0  0  0  0
 44 48  1  0  0  0  0
 48 49  1  0  0  0  0
 50 46  1  1  0  0  0
 50 51  1  0  0  0  0
 51 52  1  0  0  0  0
 51 53  2  0  0  0  0
 50 54  1  0  0  0  0
 54 55  1  0  0  0  0
 55 56  1  0  0  0  0
 57 52  1  1  0  0  0
 57 58  1  0  0  0  0
 58 59  1  0  0  0  0
 58 60  2  0  0  0  0
 57 61  1  0  0  0  0
 61 62  1  0  0  0  0
 62 63  1  0  0  0  0
 64 59  1  1  0  0  0
 64 65  1  0  0  0  0
 65 66  2  0  0  0  0
 65 67  1  0  0  0  0
 64 68  1  0  0  0  0
 68 69  1  0  0  0  0
 68 70  1  1  0  0  0
 30 71  1  0  0  0  0
 71 67  1  0  0  0  0
  1 72  1  0  0  0  0
 72 73  1  0  0  0  0
 73 74  1  0  0  0  0
 74 75  1  0  0  0  0
 75 76  1  0  0  0  0
 75 77  1  6  0  0  0
 76 78  1  0  0  0  0
 43 79  1  0  0  0  0
 43 80  1  0  0  0  0
 49 81  1  0  0  0  0
 49 82  1  0  0  0  0
M  END

>  <ACTIVITY>
5.00
$$$$
87073

  Mrv0541 05041708522D          

 55 54  0  0  0  0            999 V2000
   13.4252   -6.5586    0.0000 C   0  0  0  0  0  0  0  0  0  0  0  0
   11.9690   -5.7850    0.0000 C   0  0  0  0  0  0  0  0  0  0  0  0
   12.7256   -6.9958    0.0000 C   0  0  0  0  0  0  0  0  0  0  0  0
   13.4051   -5.7479    0.0000 C   0  0  0  0  0  0  0  0  0  0  0  0
   11.9789   -6.6392    0.0000 C   0  0  0  0  0  0  0  0  0  0  0  0
   12.6685   -5.3478    0.0000 C   0  0  0  0  0  0  0  0  0  0  0  0
   11.2622   -7.0573    0.0000 S   0  0  0  0  0  0  0  0  0  0  0  0
   10.5466   -6.6497    0.0000 O   0  5  0  0  0  0  0  0  0  0  0  0
   11.6796   -7.7728    0.0000 O   0  0  0  0  0  0  0  0  0  0  0  0
   10.8446   -7.7728    0.0000 O   0  0  0  0  0  0  0  0  0  0  0  0
   14.1196   -4.5104    0.0000 C   0  0  0  0  0  0  0  0  0  0  0  0
   14.1196   -5.3354    0.0000 C   0  0  0  0  0  0  0  0  0  0  0  0
   13.4051   -4.0980    0.0000 C   0  0  0  0  0  0  0  0  0  0  0  0
   12.6906   -4.5104    0.0000 C   0  0  0  0  0  0  0  0  0  0  0  0
   14.8342   -4.0980    0.0000 O   0  0  0  0  0  0  0  0  0  0  0  0
   14.8342   -5.7480    0.0000 N   0  0  0  0  0  0  0  0  0  0  0  0
   14.8342   -6.5730    0.0000 O   0  5  0  0  0  0  0  0  0  0  0  0
    9.6051   -7.0862    0.0000 Na  0  3  0  0  0  0  0  0  0  0  0  0
    9.6249  -10.4955    0.0000 Na  0  3  0  0  0  0  0  0  0  0  0  0
   13.4451   -9.9679    0.0000 C   0  0  0  0  0  0  0  0  0  0  0  0
   11.9888   -9.1943    0.0000 C   0  0  0  0  0  0  0  0  0  0  0  0
   12.7455  -10.4052    0.0000 C   0  0  0  0  0  0  0  0  0  0  0  0
   13.4250   -9.1573    0.0000 C   0  0  0  0  0  0  0  0  0  0  0  0
   11.9988  -10.0485    0.0000 C   0  0  0  0  0  0  0  0  0  0  0  0
   12.6884   -8.7571    0.0000 C   0  0  0  0  0  0  0  0  0  0  0  0
   11.2820  -10.4665    0.0000 S   0  0  0  0  0  0  0  0  0  0  0  0
   10.5664  -10.0590    0.0000 O   0  5  0  0  0  0  0  0  0  0  0  0
   11.6995  -11.1821    0.0000 O   0  0  0  0  0  0  0  0  0  0  0  0
   10.8646  -11.1821    0.0000 O   0  0  0  0  0  0  0  0  0  0  0  0
   14.1395   -7.9198    0.0000 C   0  0  0  0  0  0  0  0  0  0  0  0
   14.1395   -8.7448    0.0000 C   0  0  0  0  0  0  0  0  0  0  0  0
   13.4250   -7.5073    0.0000 C   0  0  0  0  0  0  0  0  0  0  0  0
   12.7106   -7.9198    0.0000 C   0  0  0  0  0  0  0  0  0  0  0  0
   14.8541   -7.5073    0.0000 O   0  0  0  0  0  0  0  0  0  0  0  0
   14.8541   -9.1573    0.0000 N   0  0  0  0  0  0  0  0  0  0  0  0
   14.8540   -9.9822    0.0000 O   0  5  0  0  0  0  0  0  0  0  0  0
    9.6846   -3.5476    0.0000 Na  0  3  0  0  0  0  0  0  0  0  0  0
   13.5047   -3.0201    0.0000 C   0  0  0  0  0  0  0  0  0  0  0  0
   12.0484   -2.2465    0.0000 C   0  0  0  0  0  0  0  0  0  0  0  0
   12.8051   -3.4572    0.0000 C   0  0  0  0  0  0  0  0  0  0  0  0
   13.4847   -2.2095    0.0000 C   0  0  0  0  0  0  0  0  0  0  0  0
   12.0584   -3.1007    0.0000 C   0  0  0  0  0  0  0  0  0  0  0  0
   12.7480   -1.8093    0.0000 C   0  0  0  0  0  0  0  0  0  0  0  0
   11.3417   -3.5188    0.0000 S   0  0  0  0  0  0  0  0  0  0  0  0
   10.6260   -3.1111    0.0000 O   0  5  0  0  0  0  0  0  0  0  0  0
   11.7591   -4.2343    0.0000 O   0  0  0  0  0  0  0  0  0  0  0  0
   10.9242   -4.2343    0.0000 O   0  0  0  0  0  0  0  0  0  0  0  0
   14.1991   -0.9720    0.0000 C   0  0  0  0  0  0  0  0  0  0  0  0
   14.1991   -1.7970    0.0000 C   0  0  0  0  0  0  0  0  0  0  0  0
   13.4847   -0.5595    0.0000 C   0  0  0  0  0  0  0  0  0  0  0  0
   12.7702   -0.9720    0.0000 C   0  0  0  0  0  0  0  0  0  0  0  0
   14.9137   -0.5595    0.0000 O   0  0  0  0  0  0  0  0  0  0  0  0
   14.9137   -2.2095    0.0000 N   0  0  0  0  0  0  0  0  0  0  0  0
   14.9137   -3.0345    0.0000 O   0  5  0  0  0  0  0  0  0  0  0  0
   16.4900   -5.0593    0.0000 Fe  0  1  0  0  0  0  0  0  0  0  0  0
  3  1  2  0  0  0  0
  4  1  1  0  0  0  0
  6  2  1  0  0  0  0
  5  2  2  0  0  0  0
  5  3  1  0  0  0  0
  6  4  2  0  0  0  0
  5  7  1  0  0  0  0
  7  8  1  0  0  0  0
  7  9  2  0  0  0  0
  7 10  2  0  0  0  0
 12 11  1  0  0  0  0
 13 11  1  0  0  0  0
  4 12  1  0  0  0  0
 14 13  2  0  0  0  0
  6 14  1  0  0  0  0
 11 15  2  0  0  0  0
 12 16  2  0  0  0  0
 16 17  1  4  0  0  0
 22 20  2  0  0  0  0
 23 20  1  0  0  0  0
 25 21  1  0  0  0  0
 24 21  2  0  0  0  0
 24 22  1  0  0  0  0
 25 23  2  0  0  0  0
 24 26  1  0  0  0  0
 26 27  1  0  0  0  0
 26 28  2  0  0  0  0
 26 29  2  0  0  0  0
 31 30  1  0  0  0  0
 32 30  1  0  0  0  0
 23 31  1  0  0  0  0
 33 32  2  0  0  0  0
 25 33  1  0  0  0  0
 30 34  2  0  0  0  0
 31 35  2  0  0  0  0
 35 36  1  4  0  0  0
 40 38  2  0  0  0  0
 41 38  1  0  0  0  0
 43 39  1  0  0  0  0
 42 39  2  0  0  0  0
 42 40  1  0  0  0  0
 43 41  2  0  0  0  0
 42 44  1  0  0  0  0
 44 45  1  0  0  0  0
 44 46  2  0  0  0  0
 44 47  2  0  0  0  0
 49 48  1  0  0  0  0
 50 48  1  0  0  0  0
 41 49  1  0  0  0  0
 51 50  2  0  0  0  0
 43 51  1  0  0  0  0
 48 52  2  0  0  0  0
 49 53  2  0  0  0  0
 53 54  1  4  0  0  0
M  CHG  8   8  -1  17  -1  18   1  19   1  27  -1  36  -1  37   1  45  -1
M  CHG  2  54  -1  55   3
M  END

>  <ACTIVITY>
5.00
$$$$
66309

  Mrv0541 05041708522D          

 37 41  0  0  0  0            999 V2000
    5.6949   -9.4030    0.0000 C   0  0  0  0  0  0  0  0  0  0  0  0
    4.9685   -9.8015    0.0000 C   0  0  0  0  0  0  0  0  0  0  0  0
    4.9513  -10.6279    0.0000 C   0  0  0  0  0  0  0  0  0  0  0  0
    5.6598  -11.0569    0.0000 C   0  0  0  0  0  0  0  0  0  0  0  0
    6.4007   -9.8283    0.0000 C   0  0  0  0  0  0  0  0  0  0  0  0
    6.3908  -10.6532    0.0000 C   0  0  0  0  0  0  0  0  0  0  0  0
    7.1724  -10.9176    0.0000 O   0  0  0  0  0  0  0  0  0  0  0  0
    7.1883   -9.5828    0.0000 C   0  0  1  0  0  0  0  0  0  0  0  0
    7.6663  -10.2529    0.0000 C   0  0  2  0  0  0  0  0  0  0  0  0
    8.4514  -10.0054    0.0000 C   0  0  1  0  0  0  0  0  0  0  0  0
    8.4586   -9.1823    0.0000 C   0  0  2  0  0  0  0  0  0  0  0  0
    7.6780   -8.9211    0.0000 C   0  0  1  0  0  0  0  0  0  0  0  0
    7.4296   -8.1333    0.0000 O   0  0  0  0  0  0  0  0  0  0  0  0
    9.1312   -8.7025    0.0000 C   0  0  0  0  0  0  0  0  0  0  0  0
    9.8830   -9.0451    0.0000 O   0  0  0  0  0  0  0  0  0  0  0  0
    9.0520   -7.8802    0.0000 N   0  0  0  0  0  0  0  0  0  0  0  0
    9.7247   -7.4004    0.0000 C   0  0  0  0  0  0  0  0  0  0  0  0
    8.3003   -7.5376    0.0000 C   0  0  0  0  0  0  0  0  0  0  0  0
    9.1154  -10.4969    0.0000 C   0  0  0  0  0  0  0  0  0  0  0  0
    7.9345  -11.0259    0.0000 C   0  0  0  0  0  0  0  0  0  0  0  0
    6.7708   -8.8642    0.0000 O   0  0  0  0  0  0  0  0  0  0  0  0
    5.7117   -8.5771    0.0000 O   0  0  0  0  0  0  0  0  0  0  0  0
    4.2275  -11.0260    0.0000 O   0  0  0  0  0  0  0  0  0  0  0  0
    3.5207  -10.5982    0.0000 C   0  0  0  0  0  0  0  0  0  0  0  0
    9.0194  -11.3173    0.0000 C   0  0  0  0  0  0  0  0  0  0  0  0
    9.6826  -11.8085    0.0000 C   0  0  0  0  0  0  0  0  0  0  0  0
   10.4412  -11.4792    0.0000 C   0  0  0  0  0  0  0  0  0  0  0  0
   10.5327  -10.6538    0.0000 C   0  0  0  0  0  0  0  0  0  0  0  0
    9.8685  -10.1662    0.0000 C   0  0  0  0  0  0  0  0  0  0  0  0
    7.3971  -11.6441    0.0000 C   0  0  0  0  0  0  0  0  0  0  0  0
    7.6655  -12.4161    0.0000 C   0  0  0  0  0  0  0  0  0  0  0  0
    8.4697  -12.5700    0.0000 C   0  0  0  0  0  0  0  0  0  0  0  0
    9.0052  -11.9459    0.0000 C   0  0  0  0  0  0  0  0  0  0  0  0
    8.7340  -11.1764    0.0000 C   0  0  0  0  0  0  0  0  0  0  0  0
    8.7424  -13.3499    0.0000 O   0  0  0  0  0  0  0  0  0  0  0  0
    8.2034  -13.9759    0.0000 C   0  0  0  0  0  0  0  0  0  0  0  0
    5.0047   -8.1496    0.0000 C   0  0  0  0  0  0  0  0  0  0  0  0
  1  2  2  0  0  0  0
  2  3  1  0  0  0  0
  3  4  2  0  0  0  0
  4  6  1  0  0  0  0
  5  1  1  0  0  0  0
  5  6  2  0  0  0  0
  6  7  1  0  0  0  0
  7  9  1  0  0  0  0
  8  5  1  0  0  0  0
  8  9  1  0  0  0  0
  9 10  1  0  0  0  0
 10 11  1  0  0  0  0
 11 12  1  0  0  0  0
 12  8  1  0  0  0  0
 12 13  1  6  0  0  0
 11 14  1  6  0  0  0
 14 15  2  0  0  0  0
 14 16  1  0  0  0  0
 16 17  1  0  0  0  0
 16 18  1  0  0  0  0
 10 19  1  1  0  0  0
  9 20  1  1  0  0  0
  8 21  1  1  0  0  0
  1 22  1  0  0  0  0
  3 23  1  0  0  0  0
 23 24  1  0  0  0  0
 19 25  2  0  0  0  0
 25 26  1  0  0  0  0
 26 27  2  0  0  0  0
 27 28  1  0  0  0  0
 28 29  2  0  0  0  0
 29 19  1  0  0  0  0
 20 30  2  0  0  0  0
 30 31  1  0  0  0  0
 31 32  2  0  0  0  0
 32 33  1  0  0  0  0
 33 34  2  0  0  0  0
 34 20  1  0  0  0  0
 32 35  1  0  0  0  0
 35 36  1  0  0  0  0
 22 37  1  0  0  0  0
M  END

>  <ACTIVITY>
5.00
$$$$
74594

  Mrv0541 05041708522D          

 25 25  0  0  1  0            999 V2000
    7.2287   -3.4042    0.0000 C   0  0  2  0  0  0  0  0  0  0  0  0
    7.9431   -3.8167    0.0000 C   0  0  2  0  0  0  0  0  0  0  0  0
    8.6575   -3.4042    0.0000 C   0  0  0  0  0  0  0  0  0  0  0  0
    9.3729   -3.8884    0.0000 O   0  0  0  0  0  0  0  0  0  0  0  0
    7.9431   -4.7415    0.0000 N   0  0  0  0  0  0  0  0  0  0  0  0
    7.2287   -2.5792    0.0000 O   0  0  0  0  0  0  0  0  0  0  0  0
   10.1846   -3.8817    0.0000 P   0  0  0  0  0  0  0  0  0  0  0  0
   10.1846   -3.0567    0.0000 O   0  0  0  0  0  0  0  0  0  0  0  0
   12.4386   -3.8817    0.0000 C   0  0  1  0  0  0  0  0  0  0  0  0
   11.7242   -4.2945    0.0000 C   0  0  1  0  0  0  0  0  0  0  0  0
   11.7242   -5.1195    0.0000 C   0  0  1  0  0  0  0  0  0  0  0  0
   12.4386   -5.5320    0.0000 C   0  0  1  0  0  0  0  0  0  0  0  0
   13.1532   -5.1195    0.0000 C   0  0  2  0  0  0  0  0  0  0  0  0
   13.1532   -4.2945    0.0000 C   0  0  2  0  0  0  0  0  0  0  0  0
   11.0098   -3.8817    0.0000 O   0  0  0  0  0  0  0  0  0  0  0  0
   12.4386   -3.0567    0.0000 O   0  0  0  0  0  0  0  0  0  0  0  0
   13.8676   -5.5320    0.0000 O   0  0  0  0  0  0  0  0  0  0  0  0
   13.8676   -3.8817    0.0000 O   0  0  0  0  0  0  0  0  0  0  0  0
   11.0098   -5.5320    0.0000 O   0  0  0  0  0  0  0  0  0  0  0  0
   12.4386   -6.3570    0.0000 O   0  0  0  0  0  0  0  0  0  0  0  0
    6.5143   -3.8168    0.0000 R#  0  0  0  0  0  0  0  0  0  0  0  0
    7.9431   -5.5665    0.0000 C   0  0  0  0  0  0  0  0  0  0  0  0
    7.2286   -5.9790    0.0000 R#  0  0  0  0  0  0  0  0  0  0  0  0
    8.6576   -5.9790    0.0000 O   0  0  0  0  0  0  0  0  0  0  0  0
    9.9711   -4.6786    0.0000 O   0  0  0  0  0  0  0  0  0  0  0  0
  1  2  1  0  0  0  0
  2  3  1  0  0  0  0
  3  4  1  0  0  0  0
  2  5  1  6  0  0  0
  1  6  1  1  0  0  0
  4  7  1  0  0  0  0
  7  8  2  0  0  0  0
  9 10  1  0  0  0  0
 10 11  1  0  0  0  0
 11 12  1  0  0  0  0
 12 13  1  0  0  0  0
 13 14  1  0  0  0  0
  9 14  1  0  0  0  0
 10 15  1  1  0  0  0
  7 15  1  0  0  0  0
  9 16  1  6  0  0  0
 13 17  1  6  0  0  0
 14 18  1  1  0  0  0
 11 19  1  1  0  0  0
 12 20  1  1  0  0  0
  1 21  1  0  0  0  0
  5 22  1  0  0  0  0
 22 23  1  0  0  0  0
 22 24  2  0  0  0  0
  7 25  1  0  0  0  0
M  RGP  2  21   1  23   2
M  END

>  <ACTIVITY>
5.00
$$$$
49315

  Mrv0541 05041708522D          

 15 15  0  0  0  0            999 V2000
   -0.7145    0.8250    0.0000 C   0  0  0  0  0  0  0  0  0  0  0  0
    0.0000    0.4125    0.0000 C   0  0  0  0  0  0  0  0  0  0  0  0
    0.0000   -0.4125    0.0000 C   0  0  0  0  0  0  0  0  0  0  0  0
    1.4289    0.4125    0.0000 C   0  0  0  0  0  0  0  0  0  0  0  0
    0.7145    0.8250    0.0000 C   0  0  0  0  0  0  0  0  0  0  0  0
    0.7145   -0.8250    0.0000 C   0  0  0  0  0  0  0  0  0  0  0  0
   -1.4289    0.4125    0.0000 C   0  0  0  0  0  0  0  0  0  0  0  0
   -1.4289   -0.4125    0.0000 C   0  0  0  0  0  0  0  0  0  0  0  0
    1.4289   -0.4125    0.0000 C   0  0  0  0  0  0  0  0  0  0  0  0
   -0.7145   -0.8250    0.0000 C   0  0  0  0  0  0  0  0  0  0  0  0
   -0.7145   -1.6500    0.0000 C   0  0  0  0  0  0  0  0  0  0  0  0
    2.1434   -0.8250    0.0000 C   0  0  0  0  0  0  0  0  0  0  0  0
   -0.7145    1.6500    0.0000 C   0  0  0  0  0  0  0  0  0  0  0  0
   -1.4289   -2.0625    0.0000 C   0  0  0  0  0  0  0  0  0  0  0  0
    0.0000   -2.0625    0.0000 C   0  0  0  0  0  0  0  0  0  0  0  0
  1  2  2  0  0  0  0
  4  5  1  0  0  0  0
  5  2  1  0  0  0  0
  3  6  1  0  0  0  0
  1  7  1  0  0  0  0
  7  8  1  0  0  0  0
  4  9  1  0  0  0  0
  6  9  2  0  0  0  0
 10  3  1  0  0  0  0
 10  8  1  0  0  0  0
 10 11  2  0  0  0  0
  9 12  1  0  0  0  0
  1 13  1  0  0  0  0
 11 14  1  0  0  0  0
 11 15  1  0  0  0  0
M  END

>  <ACTIVITY>
5.00
$$$$
66466

  Mrv0541 05041708522D          

107117  0  0  0  0            999 V2000
   -0.1208  -14.4833    0.0000 C   0  0  0  0  0  0  0  0  0  0  0  0
   -0.5292  -13.7708    0.0000 C   0  0  2  0  0  0  0  0  0  0  0  0
   -0.9420  -14.4807    0.0000 C   0  0  0  0  0  0  0  0  0  0  0  0
    3.3667   -8.9917    0.0000 C   0  0  0  0  0  0  0  0  0  0  0  0
    3.7833   -9.7083    0.0000 C   0  0  0  0  0  0  0  0  0  0  0  0
    4.1957   -8.9892    0.0000 C   0  0  0  0  0  0  0  0  0  0  0  0
   -1.2375  -12.5375    0.0000 C   0  0  2  0  0  0  0  0  0  0  0  0
   -1.2375  -13.3625    0.0000 C   0  0  2  0  0  0  0  0  0  0  0  0
   -0.5255  -12.1208    0.0000 C   0  0  0  0  0  0  0  0  0  0  0  0
    0.1865  -12.5375    0.0000 C   0  0  1  0  0  0  0  0  0  0  0  0
    0.1830  -13.3625    0.0000 C   0  0  1  0  0  0  0  0  0  0  0  0
    0.8918  -13.7757    0.0000 C   0  0  0  0  0  0  0  0  0  0  0  0
    0.8988  -12.1257    0.0000 C   0  0  2  0  0  0  0  0  0  0  0  0
    1.6082  -12.5461    0.0000 C   0  0  1  0  0  0  0  0  0  0  0  0
    1.6251  -10.8999    0.0000 C   0  0  0  0  0  0  0  0  0  0  0  0
    0.9041  -11.3034    0.0000 C   0  0  0  0  0  0  0  0  0  0  0  0
    2.3345  -11.3202    0.0000 C   0  0  0  0  0  0  0  0  0  0  0  0
    2.3207  -12.1414    0.0000 C   0  0  1  0  0  0  0  0  0  0  0  0
    3.0211  -12.5617    0.0000 C   0  0  0  0  0  0  0  0  0  0  0  0
    3.7398  -12.1653    0.0000 C   0  0  0  0  0  0  0  0  0  0  0  0
    3.0488  -10.9192    0.0000 C   0  0  1  0  0  0  0  0  0  0  0  0
    3.7493  -11.3461    0.0000 C   0  0  2  0  0  0  0  0  0  0  0  0
    4.4653  -10.9550    0.0000 C   0  0  0  0  0  0  0  0  0  0  0  0
    4.4869  -10.1356    0.0000 C   0  0  0  0  0  0  0  0  0  0  0  0
    3.0642  -10.1013    0.0000 C   0  0  0  0  0  0  0  0  0  0  0  0
   -1.9532  -12.1271    0.0000 O   0  0  0  0  0  0  0  0  0  0  0  0
   -1.9514  -13.7760    0.0000 O   0  0  0  0  0  0  0  0  0  0  0  0
    0.1792  -11.7125    0.0000 C   0  0  0  0  0  0  0  0  0  0  0  0
    1.6000  -11.7208    0.0000 C   0  0  0  0  0  0  0  0  0  0  0  0
    2.3125  -12.9625    0.0000 C   0  0  0  0  0  0  0  0  0  0  0  0
    1.5940  -13.3679    0.0000 C   0  0  0  0  0  0  0  0  0  0  0  0
    3.0228  -13.3821    0.0000 O   0  0  0  0  0  0  0  0  0  0  0  0
    4.4583  -11.7583    0.0000 C   0  0  0  0  0  0  0  0  0  0  0  0
    4.4558  -12.5833    0.0000 O   0  0  0  0  0  0  0  0  0  0  0  0
    5.1741  -11.3480    0.0000 O   0  0  0  0  0  0  0  0  0  0  0  0
   -0.5356  -15.1965    0.0000 O   0  0  0  0  0  0  0  0  0  0  0  0
    0.7042  -14.4860    0.0000 O   0  0  0  0  0  0  0  0  0  0  0  0
    5.1690  -12.9980    0.0000 C   0  0  2  0  0  0  0  0  0  0  0  0
    5.1620  -13.8216    0.0000 O   0  0  0  0  0  0  0  0  0  0  0  0
    5.8711  -14.2361    0.0000 C   0  0  1  0  0  0  0  0  0  0  0  0
    6.5892  -13.8293    0.0000 C   0  0  1  0  0  0  0  0  0  0  0  0
    6.5937  -13.0034    0.0000 C   0  0  1  0  0  0  0  0  0  0  0  0
    5.8801  -12.5842    0.0000 C   0  0  1  0  0  0  0  0  0  0  0  0
    5.8817  -11.7592    0.0000 O   0  0  0  0  0  0  0  0  0  0  0  0
    7.3108  -12.5955    0.0000 O   0  0  0  0  0  0  0  0  0  0  0  0
    7.3009  -14.2467    0.0000 O   0  0  0  0  0  0  0  0  0  0  0  0
    5.8655  -14.9861    0.0000 C   0  0  0  0  0  0  0  0  0  0  0  0
    6.5970  -11.3482    0.0000 C   0  0  2  0  0  0  0  0  0  0  0  0
    7.3076  -11.7641    0.0000 O   0  0  0  0  0  0  0  0  0  0  0  0
    8.0208  -11.3565    0.0000 C   0  0  2  0  0  0  0  0  0  0  0  0
    8.0267  -10.5312    0.0000 C   0  0  1  0  0  0  0  0  0  0  0  0
    7.3132  -10.1151    0.0000 C   0  0  2  0  0  0  0  0  0  0  0  0
    6.5938  -10.5243    0.0000 C   0  0  1  0  0  0  0  0  0  0  0  0
    5.8799  -10.1109    0.0000 O   0  0  0  0  0  0  0  0  0  0  0  0
    7.3177   -9.2901    0.0000 O   0  0  0  0  0  0  0  0  0  0  0  0
    8.7436  -10.1228    0.0000 O   0  0  0  0  0  0  0  0  0  0  0  0
    8.7329  -11.7732    0.0000 C   0  0  0  0  0  0  0  0  0  0  0  0
    9.4556  -10.5395    0.0000 C   0  0  2  0  0  0  0  0  0  0  0  0
    9.4473  -11.3632    0.0000 O   0  0  0  0  0  0  0  0  0  0  0  0
   10.1553  -11.7797    0.0000 C   0  0  0  0  0  0  0  0  0  0  0  0
   10.8745  -11.3749    0.0000 C   0  0  2  0  0  0  0  0  0  0  0  0
   10.8813  -10.5490    0.0000 C   0  0  1  0  0  0  0  0  0  0  0  0
   10.1688  -10.1279    0.0000 C   0  0  1  0  0  0  0  0  0  0  0  0
   10.1730   -9.3029    0.0000 O   0  0  0  0  0  0  0  0  0  0  0  0
   11.5995  -10.1431    0.0000 O   0  0  0  0  0  0  0  0  0  0  0  0
   11.5850  -11.7942    0.0000 O   0  0  0  0  0  0  0  0  0  0  0  0
   11.5771  -12.6192    0.0000 C   0  0  2  0  0  0  0  0  0  0  0  0
   10.8582  -13.0202    0.0000 O   0  0  0  0  0  0  0  0  0  0  0  0
   10.8484  -13.8416    0.0000 C   0  0  1  0  0  0  0  0  0  0  0  0
   11.5570  -14.2647    0.0000 C   0  0  1  0  0  0  0  0  0  0  0  0
   12.2772  -13.8603    0.0000 C   0  0  1  0  0  0  0  0  0  0  0  0
   12.2888  -13.0328    0.0000 C   0  0  1  0  0  0  0  0  0  0  0  0
   13.0067  -12.6263    0.0000 O   0  0  0  0  0  0  0  0  0  0  0  0
   12.9862  -14.2821    0.0000 O   0  0  0  0  0  0  0  0  0  0  0  0
   11.5460  -15.0896    0.0000 O   0  0  0  0  0  0  0  0  0  0  0  0
   10.1285  -14.2445    0.0000 C   0  0  0  0  0  0  0  0  0  0  0  0
    9.4196  -13.8225    0.0000 O   0  0  0  0  0  0  0  0  0  0  0  0
   -2.6664  -13.3646    0.0000 C   0  0  2  0  0  0  0  0  0  0  0  0
   -2.6654  -12.5409    0.0000 O   0  0  0  0  0  0  0  0  0  0  0  0
   -3.3764  -12.1295    0.0000 C   0  0  1  0  0  0  0  0  0  0  0  0
   -4.0927  -12.5395    0.0000 C   0  0  2  0  0  0  0  0  0  0  0  0
   -4.0935  -13.3655    0.0000 C   0  0  1  0  0  0  0  0  0  0  0  0
   -3.3779  -13.7814    0.0000 C   0  0  1  0  0  0  0  0  0  0  0  0
   -3.3765  -14.6064    0.0000 O   0  0  0  0  0  0  0  0  0  0  0  0
   -4.8087  -13.7766    0.0000 O   0  0  0  0  0  0  0  0  0  0  0  0
   -4.8062  -12.1254    0.0000 O   0  0  0  0  0  0  0  0  0  0  0  0
   -3.3745  -11.3045    0.0000 C   0  0  0  0  0  0  0  0  0  0  0  0
   -2.6590  -10.8937    0.0000 O   0  0  0  0  0  0  0  0  0  0  0  0
    7.2952  -15.0717    0.0000 C   0  0  0  0  0  0  0  0  0  0  0  0
    8.0069  -15.4890    0.0000 C   0  0  0  0  0  0  0  0  0  0  0  0
    6.5780  -15.4793    0.0000 O   0  0  0  0  0  0  0  0  0  0  0  0
    8.0012  -16.3140    0.0000 C   0  0  0  0  0  0  0  0  0  0  0  0
    0.1750  -14.1833    0.0000 H   0  0  0  0  0  0  0  0  0  0  0  0
    0.8917  -12.9500    0.0000 H   0  0  0  0  0  0  0  0  0  0  0  0
    3.0417  -11.7417    0.0000 H   0  0  0  0  0  0  0  0  0  0  0  0
   -2.6708  -14.1875    0.0000 H   0  0  0  0  0  0  0  0  0  0  0  0
    6.5917  -12.1708    0.0000 H   0  0  0  0  0  0  0  0  0  0  0  0
    9.4500   -9.7125    0.0000 H   0  0  0  0  0  0  0  0  0  0  0  0
   10.8583  -12.2042    0.0000 H   0  0  0  0  0  0  0  0  0  0  0  0
    8.7129  -16.7314    0.0000 C   0  0  0  0  0  0  0  0  0  0  0  0
    8.7041  -17.5552    0.0000 C   0  0  0  0  0  0  0  0  0  0  0  0
    9.4149  -17.9725    0.0000 C   0  0  0  0  0  0  0  0  0  0  0  0
   10.1332  -17.5648    0.0000 C   0  0  0  0  0  0  0  0  0  0  0  0
   10.1362  -16.7355    0.0000 C   0  0  0  0  0  0  0  0  0  0  0  0
    9.4248  -16.3220    0.0000 C   0  0  0  0  0  0  0  0  0  0  0  0
   10.8454  -17.9812    0.0000 O   0  0  0  0  0  0  0  0  0  0  0  0
   10.8408  -18.8062    0.0000 C   0  0  0  0  0  0  0  0  0  0  0  0
 22 23  1  0  0  0  0
 48 53  1  0  0  0  0
 49 50  1  0  0  0  0
 50 51  1  0  0  0  0
 51 52  1  0  0  0  0
 52 53  1  0  0  0  0
 23 24  1  0  0  0  0
 53 54  1  6  0  0  0
 24  5  1  0  0  0  0
 52 55  1  6  0  0  0
  5 25  1  0  0  0  0
 51 56  1  1  0  0  0
 12 31  1  0  0  0  0
 50 57  1  6  0  0  0
  7 26  1  1  0  0  0
 58 56  1  0  0  0  0
 58 59  1  0  0  0  0
 31 14  1  0  0  0  0
  8 27  1  1  0  0  0
 13 14  1  0  0  0  0
 10 28  1  1  0  0  0
  5  4  1  0  0  0  0
 58 63  1  0  0  0  0
 59 60  1  0  0  0  0
 60 61  1  0  0  0  0
 61 62  1  0  0  0  0
 62 63  1  0  0  0  0
 14 29  1  1  0  0  0
 63 64  1  6  0  0  0
  6  5  1  0  0  0  0
 62 65  1  1  0  0  0
 18 30  1  6  0  0  0
 61 66  1  6  0  0  0
 67 66  1  0  0  0  0
 67 68  1  0  0  0  0
  7  9  1  0  0  0  0
 30 32  1  0  0  0  0
 13 16  1  0  0  0  0
 22 33  1  1  0  0  0
 14 18  1  0  0  0  0
 67 72  1  0  0  0  0
 68 69  1  0  0  0  0
 69 70  1  0  0  0  0
 70 71  1  0  0  0  0
 71 72  1  0  0  0  0
 33 34  1  0  0  0  0
 72 73  1  6  0  0  0
 17 15  2  0  0  0  0
 71 74  1  1  0  0  0
 33 35  2  0  0  0  0
 70 75  1  1  0  0  0
 15 16  1  0  0  0  0
 69 76  1  1  0  0  0
  1 36  2  0  0  0  0
 76 77  1  0  0  0  0
 17 18  1  0  0  0  0
 78 27  1  0  0  0  0
 78 79  1  0  0  0  0
  1 37  1  0  0  0  0
  8  2  1  0  0  0  0
 38 34  1  1  0  0  0
 38 39  1  0  0  0  0
  2 11  1  0  0  0  0
 78 83  1  0  0  0  0
 79 80  1  0  0  0  0
 80 81  1  0  0  0  0
 81 82  1  0  0  0  0
 82 83  1  0  0  0  0
 10  9  1  0  0  0  0
 83 84  1  6  0  0  0
 10 11  1  0  0  0  0
 82 85  1  1  0  0  0
 17 21  1  0  0  0  0
 81 86  1  6  0  0  0
 18 19  1  0  0  0  0
 80 87  1  1  0  0  0
 38 43  1  0  0  0  0
 87 88  1  0  0  0  0
 39 40  1  0  0  0  0
 46 89  1  0  0  0  0
 40 41  1  0  0  0  0
 89 90  1  0  0  0  0
 41 42  1  0  0  0  0
 89 91  2  0  0  0  0
 42 43  1  0  0  0  0
 90 92  2  0  0  0  0
 19 20  1  0  0  0  0
 11 93  1  6  0  0  0
 43 44  1  6  0  0  0
 13 94  1  6  0  0  0
 20 22  1  0  0  0  0
 21 95  1  1  0  0  0
 42 45  1  1  0  0  0
 78 96  1  6  0  0  0
 21 22  1  0  0  0  0
 48 97  1  6  0  0  0
 41 46  1  1  0  0  0
 58 98  1  6  0  0  0
  2  1  1  6  0  0  0
 67 99  1  6  0  0  0
 40 47  1  1  0  0  0
 92100  1  0  0  0  0
  2  3  1  0  0  0  0
100101  2  0  0  0  0
 48 44  1  0  0  0  0
101102  1  0  0  0  0
 48 49  1  0  0  0  0
102103  2  0  0  0  0
  7  8  1  0  0  0  0
103104  1  0  0  0  0
 10 13  1  0  0  0  0
104105  2  0  0  0  0
105100  1  0  0  0  0
 11 12  1  0  0  0  0
103106  1  0  0  0  0
 21 25  1  0  0  0  0
106107  1  0  0  0  0
M  END

>  <ACTIVITY>
5.00
$$$$
66467

  Mrv0541 05041708522D          

107117  0  0  0  0            999 V2000
    0.0417  -24.8145    0.0000 C   0  0  0  0  0  0  0  0  0  0  0  0
   -0.3667  -24.1020    0.0000 C   0  0  2  0  0  0  0  0  0  0  0  0
   -0.7796  -24.8119    0.0000 C   0  0  0  0  0  0  0  0  0  0  0  0
    3.5295  -19.3224    0.0000 C   0  0  0  0  0  0  0  0  0  0  0  0
    3.9461  -20.0391    0.0000 C   0  0  0  0  0  0  0  0  0  0  0  0
    4.3586  -19.3199    0.0000 C   0  0  0  0  0  0  0  0  0  0  0  0
   -1.0751  -22.8686    0.0000 C   0  0  2  0  0  0  0  0  0  0  0  0
   -1.0751  -23.6936    0.0000 C   0  0  2  0  0  0  0  0  0  0  0  0
   -0.3630  -22.4518    0.0000 C   0  0  0  0  0  0  0  0  0  0  0  0
    0.3490  -22.8686    0.0000 C   0  0  1  0  0  0  0  0  0  0  0  0
    0.3455  -23.6936    0.0000 C   0  0  1  0  0  0  0  0  0  0  0  0
    1.0544  -24.1069    0.0000 C   0  0  0  0  0  0  0  0  0  0  0  0
    1.0614  -22.4567    0.0000 C   0  0  2  0  0  0  0  0  0  0  0  0
    1.7708  -22.8771    0.0000 C   0  0  1  0  0  0  0  0  0  0  0  0
    1.7877  -21.2307    0.0000 C   0  0  0  0  0  0  0  0  0  0  0  0
    1.0667  -21.6344    0.0000 C   0  0  0  0  0  0  0  0  0  0  0  0
    2.4972  -21.6511    0.0000 C   0  0  0  0  0  0  0  0  0  0  0  0
    2.4834  -22.4724    0.0000 C   0  0  1  0  0  0  0  0  0  0  0  0
    3.1839  -22.8928    0.0000 C   0  0  0  0  0  0  0  0  0  0  0  0
    3.9026  -22.4963    0.0000 C   0  0  0  0  0  0  0  0  0  0  0  0
    3.2116  -21.2501    0.0000 C   0  0  1  0  0  0  0  0  0  0  0  0
    3.9121  -21.6771    0.0000 C   0  0  2  0  0  0  0  0  0  0  0  0
    4.6282  -21.2859    0.0000 C   0  0  0  0  0  0  0  0  0  0  0  0
    4.6498  -20.4665    0.0000 C   0  0  0  0  0  0  0  0  0  0  0  0
    3.2270  -20.4322    0.0000 C   0  0  0  0  0  0  0  0  0  0  0  0
   -1.7908  -22.4581    0.0000 O   0  0  0  0  0  0  0  0  0  0  0  0
   -1.7890  -24.1072    0.0000 O   0  0  0  0  0  0  0  0  0  0  0  0
    0.3417  -22.0435    0.0000 C   0  0  0  0  0  0  0  0  0  0  0  0
    1.7626  -22.0518    0.0000 C   0  0  0  0  0  0  0  0  0  0  0  0
    2.4752  -23.2936    0.0000 C   0  0  0  0  0  0  0  0  0  0  0  0
    1.7566  -23.6989    0.0000 C   0  0  0  0  0  0  0  0  0  0  0  0
    3.1856  -23.7132    0.0000 O   0  0  0  0  0  0  0  0  0  0  0  0
    4.6212  -22.0893    0.0000 C   0  0  0  0  0  0  0  0  0  0  0  0
    4.6187  -22.9144    0.0000 O   0  0  0  0  0  0  0  0  0  0  0  0
    5.3370  -21.6790    0.0000 O   0  0  0  0  0  0  0  0  0  0  0  0
   -0.3731  -25.5277    0.0000 O   0  0  0  0  0  0  0  0  0  0  0  0
    0.8668  -24.8171    0.0000 O   0  0  0  0  0  0  0  0  0  0  0  0
    5.3319  -23.3291    0.0000 C   0  0  2  0  0  0  0  0  0  0  0  0
    5.3249  -24.1527    0.0000 O   0  0  0  0  0  0  0  0  0  0  0  0
    6.0341  -24.5673    0.0000 C   0  0  1  0  0  0  0  0  0  0  0  0
    6.7523  -24.1605    0.0000 C   0  0  1  0  0  0  0  0  0  0  0  0
    6.7568  -23.3344    0.0000 C   0  0  1  0  0  0  0  0  0  0  0  0
    6.0431  -22.9153    0.0000 C   0  0  1  0  0  0  0  0  0  0  0  0
    6.0447  -22.0902    0.0000 O   0  0  0  0  0  0  0  0  0  0  0  0
    7.4739  -22.9265    0.0000 O   0  0  0  0  0  0  0  0  0  0  0  0
    7.4640  -24.5778    0.0000 O   0  0  0  0  0  0  0  0  0  0  0  0
    6.0243  -25.2215    0.0000 C   0  0  0  0  0  0  0  0  0  0  0  0
    6.7601  -21.6791    0.0000 C   0  0  2  0  0  0  0  0  0  0  0  0
    7.4707  -22.0951    0.0000 O   0  0  0  0  0  0  0  0  0  0  0  0
    8.1840  -21.6875    0.0000 C   0  0  2  0  0  0  0  0  0  0  0  0
    8.1899  -20.8621    0.0000 C   0  0  1  0  0  0  0  0  0  0  0  0
    7.4763  -20.4459    0.0000 C   0  0  2  0  0  0  0  0  0  0  0  0
    6.7569  -20.8552    0.0000 C   0  0  1  0  0  0  0  0  0  0  0  0
    6.0429  -20.4417    0.0000 O   0  0  0  0  0  0  0  0  0  0  0  0
    7.4808  -19.6209    0.0000 O   0  0  0  0  0  0  0  0  0  0  0  0
    8.9068  -20.4537    0.0000 O   0  0  0  0  0  0  0  0  0  0  0  0
    8.8961  -22.1041    0.0000 C   0  0  0  0  0  0  0  0  0  0  0  0
    9.6189  -20.8703    0.0000 C   0  0  2  0  0  0  0  0  0  0  0  0
    9.6106  -21.6942    0.0000 O   0  0  0  0  0  0  0  0  0  0  0  0
   10.3186  -22.1107    0.0000 C   0  0  0  0  0  0  0  0  0  0  0  0
   11.0379  -21.7059    0.0000 C   0  0  2  0  0  0  0  0  0  0  0  0
   11.0447  -20.8798    0.0000 C   0  0  1  0  0  0  0  0  0  0  0  0
   10.3321  -20.4587    0.0000 C   0  0  1  0  0  0  0  0  0  0  0  0
   10.3363  -19.6336    0.0000 O   0  0  0  0  0  0  0  0  0  0  0  0
   11.7630  -20.4739    0.0000 O   0  0  0  0  0  0  0  0  0  0  0  0
   11.7485  -22.1252    0.0000 O   0  0  0  0  0  0  0  0  0  0  0  0
   11.7406  -22.9503    0.0000 C   0  0  2  0  0  0  0  0  0  0  0  0
   11.0216  -23.3513    0.0000 O   0  0  0  0  0  0  0  0  0  0  0  0
   11.0118  -24.1727    0.0000 C   0  0  1  0  0  0  0  0  0  0  0  0
   11.7205  -24.5959    0.0000 C   0  0  1  0  0  0  0  0  0  0  0  0
   12.4407  -24.1915    0.0000 C   0  0  1  0  0  0  0  0  0  0  0  0
   12.4523  -23.3638    0.0000 C   0  0  1  0  0  0  0  0  0  0  0  0
   13.1703  -22.9574    0.0000 O   0  0  0  0  0  0  0  0  0  0  0  0
   13.1498  -24.6132    0.0000 O   0  0  0  0  0  0  0  0  0  0  0  0
   11.7095  -25.4209    0.0000 O   0  0  0  0  0  0  0  0  0  0  0  0
   10.2918  -24.5757    0.0000 C   0  0  0  0  0  0  0  0  0  0  0  0
    9.5829  -24.1537    0.0000 O   0  0  0  0  0  0  0  0  0  0  0  0
   -2.5041  -23.6956    0.0000 C   0  0  2  0  0  0  0  0  0  0  0  0
   -2.5031  -22.8720    0.0000 O   0  0  0  0  0  0  0  0  0  0  0  0
   -3.2142  -22.4605    0.0000 C   0  0  1  0  0  0  0  0  0  0  0  0
   -3.9305  -22.8706    0.0000 C   0  0  2  0  0  0  0  0  0  0  0  0
   -3.9313  -23.6966    0.0000 C   0  0  1  0  0  0  0  0  0  0  0  0
   -3.2157  -24.1126    0.0000 C   0  0  1  0  0  0  0  0  0  0  0  0
   -3.2143  -24.9376    0.0000 O   0  0  0  0  0  0  0  0  0  0  0  0
   -4.6466  -24.1078    0.0000 O   0  0  0  0  0  0  0  0  0  0  0  0
   -4.6441  -22.4563    0.0000 O   0  0  0  0  0  0  0  0  0  0  0  0
   -3.2123  -21.6355    0.0000 C   0  0  0  0  0  0  0  0  0  0  0  0
   -2.4967  -21.2245    0.0000 O   0  0  0  0  0  0  0  0  0  0  0  0
    7.4583  -25.4029    0.0000 C   0  0  0  0  0  0  0  0  0  0  0  0
    8.1701  -25.8203    0.0000 C   0  0  0  0  0  0  0  0  0  0  0  0
    6.7411  -25.8105    0.0000 O   0  0  0  0  0  0  0  0  0  0  0  0
    8.1644  -26.6454    0.0000 C   0  0  0  0  0  0  0  0  0  0  0  0
    0.3375  -24.5145    0.0000 H   0  0  0  0  0  0  0  0  0  0  0  0
    1.0543  -23.2811    0.0000 H   0  0  0  0  0  0  0  0  0  0  0  0
    3.2045  -22.0726    0.0000 H   0  0  0  0  0  0  0  0  0  0  0  0
   -2.5085  -24.5187    0.0000 H   0  0  0  0  0  0  0  0  0  0  0  0
    6.7548  -22.5018    0.0000 H   0  0  0  0  0  0  0  0  0  0  0  0
    9.6133  -20.0433    0.0000 H   0  0  0  0  0  0  0  0  0  0  0  0
   11.0217  -22.5351    0.0000 H   0  0  0  0  0  0  0  0  0  0  0  0
    7.4471  -27.0530    0.0000 C   0  0  0  0  0  0  0  0  0  0  0  0
    6.7369  -26.6325    0.0000 C   0  0  0  0  0  0  0  0  0  0  0  0
    6.0201  -27.0395    0.0000 C   0  0  0  0  0  0  0  0  0  0  0  0
    6.0140  -27.8654    0.0000 C   0  0  0  0  0  0  0  0  0  0  0  0
    6.7307  -28.2826    0.0000 C   0  0  0  0  0  0  0  0  0  0  0  0
    7.4446  -27.8733    0.0000 C   0  0  0  0  0  0  0  0  0  0  0  0
    5.2971  -28.2740    0.0000 O   0  0  0  0  0  0  0  0  0  0  0  0
    4.5850  -27.8576    0.0000 C   0  0  0  0  0  0  0  0  0  0  0  0
 22 23  1  0  0  0  0
 48 53  1  0  0  0  0
 49 50  1  0  0  0  0
 50 51  1  0  0  0  0
 51 52  1  0  0  0  0
 52 53  1  0  0  0  0
 23 24  1  0  0  0  0
 53 54  1  6  0  0  0
 24  5  1  0  0  0  0
 52 55  1  6  0  0  0
  5 25  1  0  0  0  0
 51 56  1  1  0  0  0
 12 31  1  0  0  0  0
 50 57  1  6  0  0  0
  7 26  1  1  0  0  0
 58 56  1  0  0  0  0
 58 59  1  0  0  0  0
 31 14  1  0  0  0  0
  8 27  1  1  0  0  0
 13 14  1  0  0  0  0
 10 28  1  1  0  0  0
  5  4  1  0  0  0  0
 58 63  1  0  0  0  0
 59 60  1  0  0  0  0
 60 61  1  0  0  0  0
 61 62  1  0  0  0  0
 62 63  1  0  0  0  0
 14 29  1  1  0  0  0
 63 64  1  6  0  0  0
  6  5  1  0  0  0  0
 62 65  1  1  0  0  0
 18 30  1  6  0  0  0
 61 66  1  6  0  0  0
 67 66  1  0  0  0  0
 67 68  1  0  0  0  0
  7  9  1  0  0  0  0
 30 32  1  0  0  0  0
 13 16  1  0  0  0  0
 22 33  1  1  0  0  0
 14 18  1  0  0  0  0
 67 72  1  0  0  0  0
 68 69  1  0  0  0  0
 69 70  1  0  0  0  0
 70 71  1  0  0  0  0
 71 72  1  0  0  0  0
 33 34  1  0  0  0  0
 72 73  1  6  0  0  0
 17 15  2  0  0  0  0
 71 74  1  1  0  0  0
 33 35  2  0  0  0  0
 70 75  1  1  0  0  0
 15 16  1  0  0  0  0
 69 76  1  1  0  0  0
  1 36  2  0  0  0  0
 76 77  1  0  0  0  0
 17 18  1  0  0  0  0
 78 27  1  0  0  0  0
 78 79  1  0  0  0  0
  1 37  1  0  0  0  0
  8  2  1  0  0  0  0
 38 34  1  1  0  0  0
 38 39  1  0  0  0  0
  2 11  1  0  0  0  0
 78 83  1  0  0  0  0
 79 80  1  0  0  0  0
 80 81  1  0  0  0  0
 81 82  1  0  0  0  0
 82 83  1  0  0  0  0
 10  9  1  0  0  0  0
 83 84  1  6  0  0  0
 10 11  1  0  0  0  0
 82 85  1  1  0  0  0
 17 21  1  0  0  0  0
 81 86  1  6  0  0  0
 18 19  1  0  0  0  0
 80 87  1  1  0  0  0
 38 43  1  0  0  0  0
 87 88  1  0  0  0  0
 39 40  1  0  0  0  0
 46 89  1  0  0  0  0
 40 41  1  0  0  0  0
 89 90  1  0  0  0  0
 41 42  1  0  0  0  0
 89 91  2  0  0  0  0
 42 43  1  0  0  0  0
 90 92  2  0  0  0  0
 19 20  1  0  0  0  0
 11 93  1  6  0  0  0
 43 44  1  6  0  0  0
 13 94  1  6  0  0  0
 20 22  1  0  0  0  0
 21 95  1  1  0  0  0
 42 45  1  1  0  0  0
 78 96  1  6  0  0  0
 21 22  1  0  0  0  0
 48 97  1  6  0  0  0
 41 46  1  1  0  0  0
 58 98  1  6  0  0  0
  2  1  1  6  0  0  0
 67 99  1  6  0  0  0
 40 47  1  1  0  0  0
 92100  1  0  0  0  0
  2  3  1  0  0  0  0
100101  2  0  0  0  0
 48 44  1  0  0  0  0
101102  1  0  0  0  0
 48 49  1  0  0  0  0
102103  2  0  0  0  0
  7  8  1  0  0  0  0
103104  1  0  0  0  0
 10 13  1  0  0  0  0
104105  2  0  0  0  0
105100  1  0  0  0  0
 11 12  1  0  0  0  0
103106  1  0  0  0  0
 21 25  1  0  0  0  0
106107  1  0  0  0  0
M  END

>  <ACTIVITY>
5.00
$$$$
87359

  Mrv0541 05041708522D          

 36 39  0  0  1  0            999 V2000
    8.9870  -12.5452    0.0000 C   0  0  0  0  0  0  0  0  0  0  0  0
    9.5914  -11.9768    0.0000 C   0  0  0  0  0  0  0  0  0  0  0  0
    9.4040  -11.1750    0.0000 C   0  0  0  0  0  0  0  0  0  0  0  0
    8.6146  -10.9345    0.0000 C   0  0  0  0  0  0  0  0  0  0  0  0
    8.0127  -11.4957    0.0000 C   0  0  0  0  0  0  0  0  0  0  0  0
    8.1975  -12.3050    0.0000 C   0  0  0  0  0  0  0  0  0  0  0  0
    9.5034   -9.8183    0.0000 C   0  0  0  0  0  0  0  0  0  0  0  0
    9.9156  -10.5290    0.0000 C   0  0  0  0  0  0  0  0  0  0  0  0
   10.7400  -10.5264    0.0000 C   0  0  0  0  0  0  0  0  0  0  0  0
   11.1516   -9.8129    0.0000 C   0  0  0  0  0  0  0  0  0  0  0  0
   10.7370   -9.0971    0.0000 C   0  0  0  0  0  0  0  0  0  0  0  0
    9.9126   -9.0997    0.0000 C   0  0  0  0  0  0  0  0  0  0  0  0
   11.2589  -11.1671    0.0000 C   0  0  1  0  0  0  0  0  0  0  0  0
   10.3350  -12.3371    0.0000 N   0  0  0  0  0  0  0  0  0  0  0  0
   11.0772  -11.9768    0.0000 C   0  0  0  0  0  0  0  0  0  0  0  0
   11.7205  -12.4834    0.0000 O   0  0  0  0  0  0  0  0  0  0  0  0
   10.3350  -13.1561    0.0000 C   0  0  0  0  0  0  0  0  0  0  0  0
   11.9788  -10.7660    0.0000 N   0  0  0  0  0  0  0  0  0  0  0  0
   12.6863  -11.1865    0.0000 C   0  0  0  0  0  0  0  0  0  0  0  0
   13.4028  -10.7896    0.0000 C   0  0  1  0  0  0  0  0  0  0  0  0
   13.4227   -9.9758    0.0000 N   0  0  0  0  0  0  0  0  0  0  0  0
   14.1071  -11.2193    0.0000 C   0  0  0  0  0  0  0  0  0  0  0  0
   11.9729  -11.5876    0.0000 H   0  0  0  0  0  0  0  0  0  0  0  0
   12.6852  -12.0094    0.0000 O   0  0  0  0  0  0  0  0  0  0  0  0
   11.2672   -7.0853    0.0000 C   0  0  0  0  0  0  0  0  0  0  0  0
   10.5537   -7.5000    0.0000 C   0  0  0  0  0  0  0  0  0  0  0  0
   10.5537   -8.3282    0.0000 C   0  0  0  0  0  0  0  0  0  0  0  0
   11.2740   -8.7380    0.0000 C   0  0  0  0  0  0  0  0  0  0  0  0
   11.9874   -8.3234    0.0000 C   0  0  0  0  0  0  0  0  0  0  0  0
   11.9804   -7.4987    0.0000 C   0  0  0  0  0  0  0  0  0  0  0  0
   11.2653   -6.2623    0.0000 F   0  0  0  0  0  0  0  0  0  0  0  0
    9.8403   -8.7429    0.0000 F   0  0  0  0  0  0  0  0  0  0  0  0
   12.7024   -9.5598    0.0000 C   0  0  0  0  0  0  0  0  0  0  0  0
   11.9890   -9.9745    0.0000 O   0  0  0  0  0  0  0  0  0  0  0  0
   12.7024   -8.7317    0.0000 C   0  0  1  0  0  0  0  0  0  0  0  0
   13.4156   -8.3169    0.0000 O   0  0  0  0  0  0  0  0  0  0  0  0
  1  2  1  0  0  0  0
  2  3  2  0  0  0  0
  3  4  1  0  0  0  0
  4  5  2  0  0  0  0
  5  6  1  0  0  0  0
  6  1  2  0  0  0  0
  7  8  1  0  0  0  0
  8  9  2  0  0  0  0
  9 10  1  0  0  0  0
 10 11  2  0  0  0  0
 11 12  1  0  0  0  0
 12  7  2  0  0  0  0
  3  8  1  0  0  0  0
  9 13  1  0  0  0  0
  2 14  1  0  0  0  0
 15 13  1  0  0  0  0
 15 14  1  0  0  0  0
 15 16  2  0  0  0  0
 17 14  1  0  0  0  0
 13 18  1  6  0  0  0
 19 20  1  0  0  0  0
 19 18  1  0  0  0  0
 20 21  1  1  0  0  0
 20 22  1  0  0  0  0
 13 23  1  1  0  0  0
 19 24  2  0  0  0  0
 25 26  1  0  0  0  0
 26 27  2  0  0  0  0
 27 28  1  0  0  0  0
 28 29  2  0  0  0  0
 29 30  1  0  0  0  0
 30 25  2  0  0  0  0
 25 31  1  0  0  0  0
 27 32  1  0  0  0  0
 33 34  2  0  0  0  0
 35 36  1  6  0  0  0
 33 35  1  0  0  0  0
 35 29  1  0  0  0  0
 33 21  1  0  0  0  0
M  END

>  <ACTIVITY>
5.00
$$$$
90235

  Mrv0541 05041708522D          

 34 35  0  0  1  0            999 V2000
    8.3282   -9.9048    0.0000 C   0  0  0  0  0  0  0  0  0  0  0  0
    8.3282  -10.7298    0.0000 N   0  0  0  0  0  0  0  0  0  0  0  0
    7.6137   -9.4923    0.0000 C   0  0  1  0  0  0  0  0  0  0  0  0
    7.6137  -11.1422    0.0000 C   0  0  1  0  0  0  0  0  0  0  0  0
    6.8992   -9.9048    0.0000 N   0  0  0  0  0  0  0  0  0  0  0  0
    6.8992  -10.7298    0.0000 C   0  0  0  0  0  0  0  0  0  0  0  0
    9.0427   -9.4923    0.0000 S   0  0  0  0  0  0  0  0  0  0  0  0
    9.0426   -8.6673    0.0000 S   0  0  0  0  0  0  0  0  0  0  0  0
    7.6137   -8.6673    0.0000 C   0  0  0  0  0  0  0  0  0  0  0  0
    8.3281   -8.2548    0.0000 N   0  0  0  0  0  0  0  0  0  0  0  0
    9.7569   -8.2547    0.0000 C   0  0  0  0  0  0  0  0  0  0  0  0
   10.4525   -7.0321    0.0000 C   0  0  0  0  0  0  0  0  0  0  0  0
    8.3279   -7.4299    0.0000 C   0  0  1  0  0  0  0  0  0  0  0  0
    9.0424   -7.0173    0.0000 C   0  0  1  0  0  0  0  0  0  0  0  0
    6.8981   -8.2598    0.0000 O   0  0  0  0  0  0  0  0  0  0  0  0
    9.0450   -6.1923    0.0000 O   0  0  0  0  0  0  0  0  0  0  0  0
    6.1825  -11.1522    0.0000 O   0  0  0  0  0  0  0  0  0  0  0  0
   10.1384  -11.1522    0.0000 C   0  0  0  0  0  0  0  0  0  0  0  0
   10.1384  -11.9772    0.0000 O   0  0  0  0  0  0  0  0  0  0  0  0
   10.5857   -8.2499    0.0000 C   0  0  0  0  0  0  0  0  0  0  0  0
   11.1721   -8.8363    0.0000 C   0  0  0  0  0  0  0  0  0  0  0  0
   11.1721   -9.6613    0.0000 C   0  0  0  0  0  0  0  0  0  0  0  0
   11.8877  -10.0688    0.0000 C   0  0  2  0  0  0  0  0  0  0  0  0
   11.8926  -10.8938    0.0000 C   0  0  0  0  0  0  0  0  0  0  0  0
   12.5998   -9.6521    0.0000 O   0  0  0  0  0  0  0  0  0  0  0  0
   12.6034   -8.8263    0.0000 C   0  0  0  0  0  0  0  0  0  0  0  0
   13.3191   -8.4089    0.0000 O   0  0  0  0  0  0  0  0  0  0  0  0
    7.6138   -7.0173    0.0000 C   0  0  2  0  0  0  0  0  0  0  0  0
    7.6139   -6.1923    0.0000 C   0  0  0  0  0  0  0  0  0  0  0  0
    6.8992   -7.4297    0.0000 C   0  0  0  0  0  0  0  0  0  0  0  0
    6.8995   -5.7798    0.0000 C   0  0  0  0  0  0  0  0  0  0  0  0
    7.6138   -7.8522    0.0000 H   0  0  0  0  0  0  0  0  0  0  0  0
    8.0262  -11.8567    0.0000 C   0  0  0  0  0  0  0  0  0  0  0  0
    7.2012  -11.8567    0.0000 H   0  0  0  0  0  0  0  0  0  0  0  0
  4  2  1  0  0  0  0
  5  3  1  0  0  0  0
  6  4  1  0  0  0  0
  6  5  1  0  0  0  0
  7  1  1  0  0  0  0
  3  1  1  1  0  0  0
  8  7  1  0  0  0  0
  9  3  1  0  0  0  0
 10  9  1  0  0  0  0
 11  8  1  0  0  0  0
 13 10  1  0  0  0  0
 14 12  1  0  0  0  0
 14 13  1  0  0  0  0
  9 15  2  0  0  0  0
 14 16  1  1  0  0  0
  6 17  2  0  0  0  0
  2 18  1  0  0  0  0
 18 19  2  0  0  0  0
 11 20  1  0  0  0  0
 20 21  1  0  0  0  0
 21 22  2  0  0  0  0
 23 22  1  1  0  0  0
 23 24  1  0  0  0  0
 23 25  1  0  0  0  0
 25 26  1  0  0  0  0
 26 27  2  0  0  0  0
 12 26  1  0  0  0  0
 18 24  1  0  0  0  0
 13 28  1  0  0  0  0
 28 29  1  0  0  0  0
 28 30  1  1  0  0  0
 29 31  1  0  0  0  0
 13 32  1  1  0  0  0
 33  4  1  0  0  0  0
  4 34  1  1  0  0  0
M  END

>  <ACTIVITY>
5.00
$$$$
23527

  Mrv0541 05041708522D          

 37 40  0  0  1  0            999 V2000
   10.6529   -2.6101    0.0000 C   0  0  1  0  0  0  0  0  0  0  0  0
   10.6529   -3.4351    0.0000 C   0  0  2  0  0  0  0  0  0  0  0  0
   11.3541   -3.8476    0.0000 C   0  0  2  0  0  0  0  0  0  0  0  0
   12.0554   -3.4351    0.0000 C   0  0  2  0  0  0  0  0  0  0  0  0
   12.0554   -2.6101    0.0000 C   0  0  1  0  0  0  0  0  0  0  0  0
   11.3541   -2.1976    0.0000 C   0  0  0  0  0  0  0  0  0  0  0  0
   10.0341   -3.8476    0.0000 C   0  0  1  0  0  0  0  0  0  0  0  0
   10.1579   -4.4664    0.0000 N   0  0  0  0  0  0  0  0  0  0  0  0
   10.8591   -4.6314    0.0000 C   0  0  0  0  0  0  0  0  0  0  0  0
   10.8591   -5.4564    0.0000 O   0  0  0  0  0  0  0  0  0  0  0  0
   11.3541   -1.3726    0.0000 C   0  0  0  0  0  0  0  0  0  0  0  0
    9.9104   -2.1976    0.0000 C   0  0  0  0  0  0  0  0  0  0  0  0
   12.7979   -2.1976    0.0000 O   0  0  0  0  0  0  0  0  0  0  0  0
   12.0554   -5.0851    0.0000 C   0  0  0  0  0  0  0  0  0  0  0  0
   12.7979   -4.6726    0.0000 C   0  0  0  0  0  0  0  0  0  0  0  0
   12.7979   -3.8476    0.0000 C   0  0  0  0  0  0  0  0  0  0  0  0
   11.3541   -4.7551    0.0000 O   0  0  0  0  0  0  0  0  0  0  0  0
   12.0554   -5.9101    0.0000 O   0  0  0  0  0  0  0  0  0  0  0  0
   12.7979   -3.0226    0.0000 H   0  0  0  0  0  0  0  0  0  0  0  0
   13.4991   -5.0851    0.0000 C   0  0  0  0  0  0  0  0  0  0  0  0
   14.2416   -4.6726    0.0000 C   0  0  1  0  0  0  0  0  0  0  0  0
   14.2416   -3.8476    0.0000 C   0  0  0  0  0  0  0  0  0  0  0  0
   13.4991   -3.4351    0.0000 C   0  0  0  0  0  0  0  0  0  0  0  0
   14.9429   -5.0851    0.0000 C   0  0  0  0  0  0  0  0  0  0  0  0
   15.6854   -4.6726    0.0000 C   0  0  0  0  0  0  0  0  0  0  0  0
   15.6854   -3.8476    0.0000 C   0  0  0  0  0  0  0  0  0  0  0  0
   14.9429   -3.4351    0.0000 C   0  0  1  0  0  0  0  0  0  0  0  0
   14.9429   -4.2601    0.0000 O   0  0  0  0  0  0  0  0  0  0  0  0
   14.9429   -2.6101    0.0000 C   0  0  0  0  0  0  0  0  0  0  0  0
    9.9104   -3.0226    0.0000 H   0  0  0  0  0  0  0  0  0  0  0  0
    9.2916   -3.4351    0.0000 C   0  0  0  0  0  0  0  0  0  0  0  0
    8.5904   -3.8476    0.0000 C   0  0  0  0  0  0  0  0  0  0  0  0
    7.8479   -3.4351    0.0000 C   0  0  0  0  0  0  0  0  0  0  0  0
    7.1054   -3.8476    0.0000 C   0  0  0  0  0  0  0  0  0  0  0  0
    7.1054   -4.6726    0.0000 C   0  0  0  0  0  0  0  0  0  0  0  0
    7.8479   -5.0851    0.0000 C   0  0  0  0  0  0  0  0  0  0  0  0
    8.5904   -4.6726    0.0000 C   0  0  0  0  0  0  0  0  0  0  0  0
  1  2  1  0  0  0  0
  2  3  1  0  0  0  0
  3  4  1  0  0  0  0
  4  5  1  0  0  0  0
  5  6  1  0  0  0  0
  1  6  1  0  0  0  0
  2  7  1  0  0  0  0
  7  8  1  0  0  0  0
  8  9  1  0  0  0  0
  3  9  1  0  0  0  0
  9 10  2  0  0  0  0
  6 11  2  0  0  0  0
  1 12  1  6  0  0  0
  5 13  1  1  0  0  0
 14 15  1  0  0  0  0
  4 16  1  0  0  0  0
  3 17  1  1  0  0  0
 17 14  1  0  0  0  0
 14 18  2  0  0  0  0
  4 19  1  1  0  0  0
 15 20  2  0  0  0  0
 20 21  1  0  0  0  0
 22 23  1  0  0  0  0
 16 23  2  0  0  0  0
 21 24  1  0  0  0  0
 24 25  1  0  0  0  0
 25 26  1  0  0  0  0
 26 27  1  0  0  0  0
 22 27  1  0  0  0  0
 21 28  1  6  0  0  0
 27 29  1  6  0  0  0
  2 30  1  1  0  0  0
  7 31  1  1  0  0  0
 31 32  1  0  0  0  0
 32 33  2  0  0  0  0
 33 34  1  0  0  0  0
 34 35  2  0  0  0  0
 35 36  1  0  0  0  0
 36 37  2  0  0  0  0
 32 37  1  0  0  0  0
M  END

>  <ACTIVITY>
5.00
$$$$
76191

  Mrv0541 05041708522D          

 35 40  0  0  1  0            999 V2000
    6.5000  -12.4303    0.0000 O   0  0  0  0  0  0  0  0  0  0  0  0
    6.3200  -13.2354    0.0000 C   0  0  0  0  0  0  0  0  0  0  0  0
    5.5327  -13.4821    0.0000 C   0  0  0  0  0  0  0  0  0  0  0  0
    5.3527  -14.2872    0.0000 C   0  0  0  0  0  0  0  0  0  0  0  0
    5.9600  -14.8456    0.0000 C   0  0  0  0  0  0  0  0  0  0  0  0
    6.7472  -14.5990    0.0000 C   0  0  0  0  0  0  0  0  0  0  0  0
    6.9273  -13.7938    0.0000 C   0  0  0  0  0  0  0  0  0  0  0  0
    5.7799  -15.6508    0.0000 C   0  0  1  0  0  0  0  0  0  0  0  0
    4.9765  -15.8379    0.0000 C   0  0  0  0  0  0  0  0  0  0  0  0
    4.6218  -16.5828    0.0000 C   0  0  0  0  0  0  0  0  0  0  0  0
    3.7994  -16.6481    0.0000 C   0  0  0  0  0  0  0  0  0  0  0  0
    3.3316  -15.9685    0.0000 C   0  0  0  0  0  0  0  0  0  0  0  0
    2.5092  -16.0338    0.0000 O   0  0  0  0  0  0  0  0  0  0  0  0
    3.6863  -15.2236    0.0000 C   0  0  0  0  0  0  0  0  0  0  0  0
    4.5087  -15.1583    0.0000 C   0  0  0  0  0  0  0  0  0  0  0  0
    4.8633  -14.4135    0.0000 O   0  0  0  0  0  0  0  0  0  0  0  0
    4.9830  -17.3245    0.0000 C   0  0  1  0  0  0  0  0  0  0  0  0
    4.1628  -17.4130    0.0000 H   0  0  0  0  0  0  0  0  0  0  0  0
    5.7882  -17.5045    0.0000 C   0  0  0  0  0  0  0  0  0  0  0  0
    6.4309  -16.9873    0.0000 C   0  0  0  0  0  0  0  0  0  0  0  0
    7.2002  -17.2853    0.0000 C   0  0  0  0  0  0  0  0  0  0  0  0
    7.3268  -18.1005    0.0000 C   0  0  0  0  0  0  0  0  0  0  0  0
    8.0961  -18.3985    0.0000 O   0  0  0  0  0  0  0  0  0  0  0  0
    6.6840  -18.6178    0.0000 C   0  0  0  0  0  0  0  0  0  0  0  0
    5.9147  -18.3198    0.0000 C   0  0  0  0  0  0  0  0  0  0  0  0
    5.1730  -18.6810    0.0000 O   0  0  0  0  0  0  0  0  0  0  0  0
    4.5737  -18.0408    0.0000 C   0  0  2  0  0  0  0  0  0  0  0  0
    3.7523  -18.1177    0.0000 C   0  0  0  0  0  0  0  0  0  0  0  0
    3.2750  -17.4447    0.0000 C   0  0  0  0  0  0  0  0  0  0  0  0
    2.4536  -17.5216    0.0000 C   0  0  0  0  0  0  0  0  0  0  0  0
    2.1095  -18.2714    0.0000 C   0  0  0  0  0  0  0  0  0  0  0  0
    1.2881  -18.3482    0.0000 O   0  0  0  0  0  0  0  0  0  0  0  0
    2.5867  -18.9443    0.0000 C   0  0  0  0  0  0  0  0  0  0  0  0
    3.4081  -18.8674    0.0000 C   0  0  0  0  0  0  0  0  0  0  0  0
    6.4272  -16.1623    0.0000 C   0  0  0  0  0  0  0  0  0  0  0  0
  1  2  1  0  0  0  0
  2  3  1  0  0  0  0
  2  7  2  0  0  0  0
  3  4  2  0  0  0  0
  4  5  1  0  0  0  0
  5  6  2  0  0  0  0
  8  5  1  6  0  0  0
  6  7  1  0  0  0  0
  8  9  1  0  0  0  0
  8 35  1  0  0  0  0
  9 10  1  0  0  0  0
  9 15  2  0  0  0  0
 10 11  2  0  0  0  0
 10 17  1  0  0  0  0
 11 12  1  0  0  0  0
 12 13  1  0  0  0  0
 12 14  2  0  0  0  0
 14 15  1  0  0  0  0
 15 16  1  0  0  0  0
 17 18  1  6  0  0  0
 17 19  1  0  0  0  0
 17 27  1  0  0  0  0
 19 20  2  0  0  0  0
 19 25  1  0  0  0  0
 20 21  1  0  0  0  0
 20 35  1  0  0  0  0
 21 22  2  0  0  0  0
 22 23  1  0  0  0  0
 22 24  1  0  0  0  0
 24 25  2  0  0  0  0
 25 26  1  0  0  0  0
 26 27  1  0  0  0  0
 27 28  1  6  0  0  0
 28 29  1  0  0  0  0
 28 34  2  0  0  0  0
 29 30  2  0  0  0  0
 30 31  1  0  0  0  0
 31 32  1  0  0  0  0
 31 33  2  0  0  0  0
 33 34  1  0  0  0  0
M  END

>  <ACTIVITY>
5.00
$$$$
76196

  Mrv0541 05041708522D          

 51 58  0  0  1  0            999 V2000
   16.3886  -19.3679    0.0000 O   0  0  0  0  0  0  0  0  0  0  0  0
   16.8222  -20.0698    0.0000 C   0  0  0  0  0  0  0  0  0  0  0  0
   16.4311  -20.7962    0.0000 C   0  0  0  0  0  0  0  0  0  0  0  0
   16.8647  -21.4982    0.0000 C   0  0  0  0  0  0  0  0  0  0  0  0
   16.4736  -22.2245    0.0000 C   0  0  0  0  0  0  0  0  0  0  0  0
   16.9071  -22.9265    0.0000 C   0  0  0  0  0  0  0  0  0  0  0  0
   16.5160  -23.6529    0.0000 C   0  0  0  0  0  0  0  0  0  0  0  0
   15.6914  -23.6774    0.0000 C   0  0  0  0  0  0  0  0  0  0  0  0
   15.3003  -24.4038    0.0000 C   0  0  0  0  0  0  0  0  0  0  0  0
   15.7338  -25.1057    0.0000 C   0  0  0  0  0  0  0  0  0  0  0  0
   15.5023  -25.8976    0.0000 O   0  0  0  0  0  0  0  0  0  0  0  0
   16.1839  -26.3625    0.0000 C   0  0  2  0  0  0  0  0  0  0  0  0
   15.7928  -27.0889    0.0000 C   0  0  0  0  0  0  0  0  0  0  0  0
   14.9682  -27.1134    0.0000 C   0  0  0  0  0  0  0  0  0  0  0  0
   14.5771  -27.8398    0.0000 C   0  0  0  0  0  0  0  0  0  0  0  0
   15.0106  -28.5417    0.0000 C   0  0  0  0  0  0  0  0  0  0  0  0
   14.6195  -29.2681    0.0000 O   0  0  0  0  0  0  0  0  0  0  0  0
   15.8353  -28.5172    0.0000 C   0  0  0  0  0  0  0  0  0  0  0  0
   16.2264  -27.7908    0.0000 C   0  0  0  0  0  0  0  0  0  0  0  0
   16.8366  -25.8579    0.0000 C   0  0  1  0  0  0  0  0  0  0  0  0
   17.4067  -26.4544    0.0000 C   0  0  0  0  0  0  0  0  0  0  0  0
   17.1751  -27.2462    0.0000 C   0  0  0  0  0  0  0  0  0  0  0  0
   17.7451  -27.8426    0.0000 C   0  0  0  0  0  0  0  0  0  0  0  0
   17.5136  -28.6345    0.0000 O   0  0  0  0  0  0  0  0  0  0  0  0
   18.5467  -27.6472    0.0000 C   0  0  0  0  0  0  0  0  0  0  0  0
   18.7782  -26.8554    0.0000 C   0  0  0  0  0  0  0  0  0  0  0  0
   18.2082  -26.2590    0.0000 C   0  0  0  0  0  0  0  0  0  0  0  0
   18.5993  -25.5325    0.0000 C   0  0  2  0  0  0  0  0  0  0  0  0
   18.6611  -24.7098    0.0000 C   0  0  0  0  0  0  0  0  0  0  0  0
   19.4044  -24.3520    0.0000 C   0  0  0  0  0  0  0  0  0  0  0  0
   19.4663  -23.5293    0.0000 C   0  0  0  0  0  0  0  0  0  0  0  0
   20.2097  -23.1715    0.0000 O   0  0  0  0  0  0  0  0  0  0  0  0
   18.7848  -23.0644    0.0000 C   0  0  0  0  0  0  0  0  0  0  0  0
   18.0413  -23.4222    0.0000 C   0  0  0  0  0  0  0  0  0  0  0  0
   17.8067  -22.6063    0.0000 O   0  0  0  0  0  0  0  0  0  0  0  0
   17.9795  -24.2449    0.0000 C   0  0  0  0  0  0  0  0  0  0  0  0
   19.4110  -25.6800    0.0000 C   0  0  1  0  0  0  0  0  0  0  0  0
   20.2125  -25.4846    0.0000 C   0  0  0  0  0  0  0  0  0  0  0  0
   20.7825  -26.0810    0.0000 C   0  0  0  0  0  0  0  0  0  0  0  0
   21.5841  -25.8855    0.0000 C   0  0  0  0  0  0  0  0  0  0  0  0
   21.8156  -25.0937    0.0000 C   0  0  0  0  0  0  0  0  0  0  0  0
   22.6171  -24.8983    0.0000 O   0  0  0  0  0  0  0  0  0  0  0  0
   21.2456  -24.4973    0.0000 C   0  0  0  0  0  0  0  0  0  0  0  0
   20.4440  -24.6927    0.0000 C   0  0  0  0  0  0  0  0  0  0  0  0
   19.5216  -26.4975    0.0000 O   0  0  0  0  0  0  0  0  0  0  0  0
   16.5585  -25.0812    0.0000 C   0  0  0  0  0  0  0  0  0  0  0  0
   16.9496  -24.3548    0.0000 C   0  0  0  0  0  0  0  0  0  0  0  0
   17.6893  -21.4736    0.0000 C   0  0  0  0  0  0  0  0  0  0  0  0
   18.0804  -20.7472    0.0000 C   0  0  0  0  0  0  0  0  0  0  0  0
   18.9050  -20.7227    0.0000 O   0  0  0  0  0  0  0  0  0  0  0  0
   17.6469  -20.0453    0.0000 C   0  0  0  0  0  0  0  0  0  0  0  0
  1  2  1  0  0  0  0
  2  3  2  0  0  0  0
  2 51  1  0  0  0  0
  3  4  1  0  0  0  0
  4  5  1  0  0  0  0
  4 48  2  0  0  0  0
  5  6  2  0  0  0  0
  6  7  1  0  0  0  0
  7  8  2  0  0  0  0
  7 47  1  0  0  0  0
  8  9  1  0  0  0  0
  9 10  2  0  0  0  0
 10 11  1  0  0  0  0
 10 46  1  0  0  0  0
 11 12  1  0  0  0  0
 12 13  1  1  0  0  0
 12 20  1  0  0  0  0
 13 14  2  0  0  0  0
 13 19  1  0  0  0  0
 14 15  1  0  0  0  0
 15 16  2  0  0  0  0
 16 17  1  0  0  0  0
 16 18  1  0  0  0  0
 18 19  2  0  0  0  0
 20 21  1  6  0  0  0
 20 46  1  0  0  0  0
 21 22  2  0  0  0  0
 21 27  1  0  0  0  0
 22 23  1  0  0  0  0
 23 24  1  0  0  0  0
 23 25  2  0  0  0  0
 25 26  1  0  0  0  0
 26 27  2  0  0  0  0
 26 45  1  0  0  0  0
 27 28  1  0  0  0  0
 28 29  1  6  0  0  0
 28 37  1  0  0  0  0
 29 30  2  0  0  0  0
 29 36  1  0  0  0  0
 30 31  1  0  0  0  0
 31 32  1  0  0  0  0
 31 33  2  0  0  0  0
 33 34  1  0  0  0  0
 34 35  1  0  0  0  0
 34 36  2  0  0  0  0
 37 38  1  1  0  0  0
 37 45  1  0  0  0  0
 38 39  2  0  0  0  0
 38 44  1  0  0  0  0
 39 40  1  0  0  0  0
 40 41  2  0  0  0  0
 41 42  1  0  0  0  0
 41 43  1  0  0  0  0
 43 44  2  0  0  0  0
 46 47  2  0  0  0  0
 48 49  1  0  0  0  0
 49 50  1  0  0  0  0
 49 51  2  0  0  0  0
M  END

>  <ACTIVITY>
5.00
$$$$
88216

  Mrv0541 05041708522D          

 35 40  0  0  0  0            999 V2000
   10.2208   -3.0975    0.0000 C   0  0  0  0  0  0  0  0  0  0  0  0
   10.2208   -3.9225    0.0000 C   0  0  0  0  0  0  0  0  0  0  0  0
   10.9352   -4.3349    0.0000 C   0  0  0  0  0  0  0  0  0  0  0  0
   11.6497   -3.9225    0.0000 C   0  0  0  0  0  0  0  0  0  0  0  0
   11.6497   -3.0975    0.0000 C   0  0  0  0  0  0  0  0  0  0  0  0
   10.9352   -2.6850    0.0000 C   0  0  0  0  0  0  0  0  0  0  0  0
   12.3789   -2.6850    0.0000 N   0  0  0  0  0  0  0  0  0  0  0  0
   13.0934   -3.0975    0.0000 N   0  0  0  0  0  0  0  0  0  0  0  0
   13.8078   -2.6850    0.0000 C   0  0  0  0  0  0  0  0  0  0  0  0
   14.5235   -3.0982    0.0000 C   0  0  0  0  0  0  0  0  0  0  0  0
   15.2378   -2.6858    0.0000 C   0  0  0  0  0  0  0  0  0  0  0  0
   15.2378   -1.8608    0.0000 C   0  0  0  0  0  0  0  0  0  0  0  0
   14.5222   -1.4476    0.0000 C   0  0  0  0  0  0  0  0  0  0  0  0
   13.8078   -1.8600    0.0000 C   0  0  0  0  0  0  0  0  0  0  0  0
   14.5235   -3.9232    0.0000 C   0  0  0  0  0  0  0  0  0  0  0  0
   15.2378   -4.3357    0.0000 C   0  0  0  0  0  0  0  0  0  0  0  0
   15.9523   -3.9232    0.0000 C   0  0  0  0  0  0  0  0  0  0  0  0
   15.9523   -3.0982    0.0000 C   0  0  0  0  0  0  0  0  0  0  0  0
    9.5064   -4.3349    0.0000 N   0  0  0  0  0  0  0  0  0  0  0  0
    8.8019   -3.9281    0.0000 N   0  0  0  0  0  0  0  0  0  0  0  0
    8.1023   -4.3321    0.0000 C   0  0  0  0  0  0  0  0  0  0  0  0
    7.4004   -3.9267    0.0000 C   0  0  0  0  0  0  0  0  0  0  0  0
    6.6859   -4.3390    0.0000 C   0  0  0  0  0  0  0  0  0  0  0  0
    6.6858   -5.1640    0.0000 C   0  0  0  0  0  0  0  0  0  0  0  0
    7.3877   -5.5694    0.0000 C   0  0  0  0  0  0  0  0  0  0  0  0
    8.1022   -5.1571    0.0000 C   0  0  0  0  0  0  0  0  0  0  0  0
   12.3642   -4.3349    0.0000 C   0  0  0  0  0  0  0  0  0  0  0  0
   12.3642   -5.1599    0.0000 C   0  0  0  0  0  0  0  0  0  0  0  0
   11.6497   -5.5724    0.0000 C   0  0  0  0  0  0  0  0  0  0  0  0
   10.9353   -5.1599    0.0000 C   0  0  0  0  0  0  0  0  0  0  0  0
   16.6668   -1.8608    0.0000 C   0  0  0  0  0  0  0  0  0  0  0  0
   16.6668   -2.6858    0.0000 N   0  0  0  0  0  0  0  0  0  0  0  0
   15.9523   -1.4483    0.0000 N   0  0  0  0  0  0  0  0  0  0  0  0
   17.0793   -1.1463    0.0000 C   0  0  0  0  0  0  0  0  0  0  0  0
   17.4918   -1.8608    0.0000 C   0  0  0  0  0  0  0  0  0  0  0  0
  1  2  2  0  0  0  0
  2  3  1  0  0  0  0
  3  4  2  0  0  0  0
  4  5  1  0  0  0  0
  5  6  2  0  0  0  0
  1  6  1  0  0  0  0
  5  7  1  0  0  0  0
  7  8  2  3  0  0  0
  8  9  1  0  0  0  0
  9 10  2  0  0  0  0
 10 11  1  0  0  0  0
 11 12  2  0  0  0  0
 12 13  1  0  0  0  0
 13 14  2  0  0  0  0
  9 14  1  0  0  0  0
 10 15  1  0  0  0  0
 15 16  2  0  0  0  0
 16 17  1  0  0  0  0
 17 18  2  0  0  0  0
  2 19  1  0  0  0  0
 19 20  2  3  0  0  0
 20 21  1  0  0  0  0
 21 22  2  0  0  0  0
 22 23  1  0  0  0  0
 23 24  2  0  0  0  0
 24 25  1  0  0  0  0
 25 26  2  0  0  0  0
 21 26  1  0  0  0  0
 28 27  2  0  0  0  0
  4 27  1  0  0  0  0
 29 28  1  0  0  0  0
 30 29  2  0  0  0  0
 30  3  1  0  0  0  0
 32 31  1  0  0  0  0
 33 31  1  0  0  0  0
 18 32  1  0  0  0  0
 12 33  1  0  0  0  0
 11 18  1  0  0  0  0
 31 34  1  0  0  0  0
 31 35  1  0  0  0  0
M  END

>  <ACTIVITY>
5.00
$$$$
9776

  Mrv0541 05041708522D          

 21 22  0  0  1  0            999 V2000
   15.7817  -18.1872    0.0000 C   0  0  2  0  0  0  0  0  0  0  0  0
   15.1367  -16.8478    0.0000 C   0  0  0  0  0  0  0  0  0  0  0  0
   13.8672  -17.2603    0.0000 C   0  0  0  0  0  0  0  0  0  0  0  0
   14.3521  -16.5929    0.0000 C   0  0  0  0  0  0  0  0  0  0  0  0
   15.1367  -17.6728    0.0000 C   0  0  0  0  0  0  0  0  0  0  0  0
   16.5861  -16.5170    0.0000 C   0  0  0  0  0  0  0  0  0  0  0  0
   16.9440  -17.2603    0.0000 C   0  0  1  0  0  0  0  0  0  0  0  0
   14.3521  -17.9278    0.0000 C   0  0  0  0  0  0  0  0  0  0  0  0
   15.7817  -16.3335    0.0000 C   0  0  0  0  0  0  0  0  0  0  0  0
   16.5861  -18.0036    0.0000 C   0  0  1  0  0  0  0  0  0  0  0  0
   15.5982  -15.5292    0.0000 C   0  0  0  0  0  0  0  0  0  0  0  0
   14.0972  -18.7124    0.0000 C   0  0  0  0  0  0  0  0  0  0  0  0
   15.7078  -19.0088    0.0000 O   0  0  0  0  0  0  0  0  0  0  0  0
   16.4664  -19.3331    0.0000 C   0  0  0  0  0  0  0  0  0  0  0  0
   17.0092  -18.7118    0.0000 C   0  0  0  0  0  0  0  0  0  0  0  0
   17.8342  -18.7118    0.0000 C   0  0  0  0  0  0  0  0  0  0  0  0
   16.6800  -20.1300    0.0000 O   0  0  0  0  0  0  0  0  0  0  0  0
   18.1814  -16.5459    0.0000 C   0  0  0  0  0  0  0  0  0  0  0  0
   17.7689  -15.8314    0.0000 O   0  0  0  0  0  0  0  0  0  0  0  0
   17.7689  -17.2603    0.0000 O   0  0  0  0  0  0  0  0  0  0  0  0
   19.0064  -16.5459    0.0000 C   0  0  0  0  0  0  0  0  0  0  0  0
  9  6  1  0  0  0  0
  9  2  2  0  0  0  0
  1  5  1  0  0  0  0
  4  2  1  0  0  0  0
  3  4  1  0  0  0  0
  3  8  1  0  0  0  0
  5  8  2  0  0  0  0
  6  7  1  0  0  0  0
 10  7  1  0  0  0  0
  8 12  1  0  0  0  0
  9 11  1  0  0  0  0
 10 15  1  1  0  0  0
 10  1  1  0  0  0  0
  1 13  1  6  0  0  0
 13 14  1  0  0  0  0
 14 15  1  0  0  0  0
 15 16  2  0  0  0  0
 14 17  2  0  0  0  0
 19 18  2  0  0  0  0
 20 18  1  0  0  0  0
 21 18  1  0  0  0  0
  7 20  1  6  0  0  0
M  END

>  <ACTIVITY>
5.00
$$$$
80599

  Mrv0541 05041708522D          

 16 18  0  0  0  0            999 V2000
    6.2738  -14.6593    0.0000 C   0  0  0  0  0  0  0  0  0  0  0  0
    5.5352  -15.0215    0.0000 N   0  0  0  0  0  0  0  0  0  0  0  0
    4.7868  -14.6735    0.0000 C   0  0  0  0  0  0  0  0  0  0  0  0
    4.5948  -13.8771    0.0000 C   0  0  0  0  0  0  0  0  0  0  0  0
    6.4478  -13.8474    0.0000 C   0  0  0  0  0  0  0  0  0  0  0  0
    5.0975  -13.2212    0.0000 C   0  0  0  0  0  0  0  0  0  0  0  0
    5.9233  -13.2103    0.0000 C   0  0  0  0  0  0  0  0  0  0  0  0
    6.8859  -15.2123    0.0000 C   0  0  0  0  0  0  0  0  0  0  0  0
    7.6709  -14.9587    0.0000 C   0  0  0  0  0  0  0  0  0  0  0  0
    7.8449  -14.1468    0.0000 C   0  0  0  0  0  0  0  0  0  0  0  0
    7.2328  -13.5938    0.0000 C   0  0  0  0  0  0  0  0  0  0  0  0
    3.7979  -13.6635    0.0000 C   0  0  0  0  0  0  0  0  0  0  0  0
    3.2146  -14.2469    0.0000 C   0  0  0  0  0  0  0  0  0  0  0  0
    3.4281  -15.0439    0.0000 C   0  0  0  0  0  0  0  0  0  0  0  0
    4.2250  -15.2573    0.0000 C   0  0  0  0  0  0  0  0  0  0  0  0
    8.6131  -13.8989    0.0000 O   0  0  0  0  0  0  0  0  0  0  0  0
  3  4  1  0  0  0  0
  1  5  1  0  0  0  0
  4  6  1  0  0  0  0
  2  3  1  0  0  0  0
  5  7  1  0  0  0  0
  1  2  1  0  0  0  0
  6  7  2  0  0  0  0
  1  8  2  0  0  0  0
  8  9  1  0  0  0  0
  9 10  2  0  0  0  0
 10 11  1  0  0  0  0
  5 11  2  0  0  0  0
  4 12  2  0  0  0  0
 12 13  1  0  0  0  0
 13 14  2  0  0  0  0
 14 15  1  0  0  0  0
 15  3  2  0  0  0  0
 10 16  1  0  0  0  0
M  END

>  <ACTIVITY>
5.00
$$$$
67226

  Mrv0541 05041708522D          

 10 10  0  0  1  0            999 V2000
    8.6364  -14.8152    0.0000 C   0  0  2  0  0  0  0  0  0  0  0  0
    8.6364  -15.6402    0.0000 C   0  0  2  0  0  0  0  0  0  0  0  0
    7.9219  -14.4027    0.0000 C   0  0  1  0  0  0  0  0  0  0  0  0
    7.9219  -16.0527    0.0000 C   0  0  1  0  0  0  0  0  0  0  0  0
    7.2075  -14.8152    0.0000 C   0  0  0  0  0  0  0  0  0  0  0  0
    7.2075  -15.6402    0.0000 C   0  0  0  0  0  0  0  0  0  0  0  0
    7.9220  -13.5777    0.0000 O   0  0  0  0  0  0  0  0  0  0  0  0
    9.3509  -16.0527    0.0000 O   0  0  0  0  0  0  0  0  0  0  0  0
    9.3510  -14.4027    0.0000 O   0  0  0  0  0  0  0  0  0  0  0  0
    7.9219  -16.8777    0.0000 O   0  0  0  0  0  0  0  0  0  0  0  0
  2  1  1  0  0  0  0
  3  1  1  0  0  0  0
  4  2  1  0  0  0  0
  5  3  1  0  0  0  0
  6  4  1  0  0  0  0
  6  5  2  0  0  0  0
  3  7  1  1  0  0  0
  2  8  1  1  0  0  0
  1  9  1  6  0  0  0
  4 10  1  6  0  0  0
M  END

>  <ACTIVITY>
5.00
$$$$
36732

  Mrv0541 05041708522D          

 24 27  0  0  0  0            999 V2000
   -3.4783    0.4125    0.0000 C   0  0  0  0  0  0  0  0  0  0  0  0
   -3.7332    1.1972    0.0000 C   0  0  0  0  0  0  0  0  0  0  0  0
   -4.5582    1.1972    0.0000 C   0  0  0  0  0  0  0  0  0  0  0  0
   -4.8131    0.4125    0.0000 C   0  0  0  0  0  0  0  0  0  0  0  0
   -4.1457   -0.0724    0.0000 N   0  0  0  0  0  0  0  0  0  0  0  0
   -2.0494    0.4125    0.0000 C   0  0  0  0  0  0  0  0  0  0  0  0
   -0.9694    1.1971    0.0000 C   0  0  0  0  0  0  0  0  0  0  0  0
   -1.7944    1.1971    0.0000 C   0  0  0  0  0  0  0  0  0  0  0  0
   -1.3819   -0.0724    0.0000 N   0  0  0  0  0  0  0  0  0  0  0  0
   -0.7145    0.4125    0.0000 C   0  0  0  0  0  0  0  0  0  0  0  0
    0.7144    0.4125    0.0000 C   0  0  0  0  0  0  0  0  0  0  0  0
    1.7943    1.1971    0.0000 C   0  0  0  0  0  0  0  0  0  0  0  0
    0.9693    1.1971    0.0000 C   0  0  0  0  0  0  0  0  0  0  0  0
    1.3818   -0.0724    0.0000 N   0  0  0  0  0  0  0  0  0  0  0  0
    2.0493    0.4125    0.0000 C   0  0  0  0  0  0  0  0  0  0  0  0
    2.7638    0.0000    0.0000 C   0  0  0  0  0  0  0  0  0  0  0  0
    3.4783    0.4125    0.0000 C   0  0  0  0  0  0  0  0  0  0  0  0
    4.8131    0.4125    0.0000 C   0  0  0  0  0  0  0  0  0  0  0  0
    4.5582    1.1972    0.0000 C   0  0  0  0  0  0  0  0  0  0  0  0
    3.7332    1.1972    0.0000 C   0  0  0  0  0  0  0  0  0  0  0  0
    4.1457   -0.0724    0.0000 N   0  0  0  0  0  0  0  0  0  0  0  0
   -2.7638    0.0000    0.0000 C   0  0  0  0  0  0  0  0  0  0  0  0
    0.0000    0.0000    0.0000 C   0  0  0  0  0  0  0  0  0  0  0  0
    0.0000   -0.8250    0.0000 H   0  0  0  0  0  0  0  0  0  0  0  0
 22  1  1  0  0  0  0
 22  6  1  0  0  0  0
  5  1  1  0  0  0  0
  1  2  2  0  0  0  0
  2  3  1  0  0  0  0
  3  4  2  0  0  0  0
  5  4  1  0  0  0  0
  8  6  2  0  0  0  0
  9  6  1  0  0  0  0
 10  7  2  0  0  0  0
  9 10  1  0  0  0  0
  7  8  1  0  0  0  0
 23 10  1  0  0  0  0
 23 11  2  0  0  0  0
 13 11  1  0  0  0  0
 14 11  1  0  0  0  0
 15 12  1  0  0  0  0
 14 15  2  0  0  0  0
 12 13  2  0  0  0  0
 16 15  1  0  0  0  0
 16 17  1  0  0  0  0
 20 17  2  0  0  0  0
 21 17  1  0  0  0  0
 21 18  1  0  0  0  0
 18 19  2  0  0  0  0
 19 20  1  0  0  0  0
 23 24  1  4  0  0  0
M  END

>  <ACTIVITY>
5.00
$$$$
38209

  Mrv0541 05041708522D          

 46 54  0  0  0  0            999 V2000
   -1.6487    0.7096    0.0000 C   0  0  0  0  0  0  0  0  0  0  0  0
   -0.7096    1.6696    0.0000 C   0  0  0  0  0  0  0  0  0  0  0  0
    0.0000    2.0870    0.0000 C   0  0  0  0  0  0  0  0  0  0  0  0
    0.7305    1.6696    0.0000 C   0  0  0  0  0  0  0  0  0  0  0  0
    1.6696    0.7096    0.0000 C   0  0  0  0  0  0  0  0  0  0  0  0
    2.0871    0.0000    0.0000 C   0  0  0  0  0  0  0  0  0  0  0  0
    1.6696   -0.7096    0.0000 C   0  0  0  0  0  0  0  0  0  0  0  0
    0.7305   -1.6697    0.0000 C   0  0  0  0  0  0  0  0  0  0  0  0
   -0.7096   -1.6697    0.0000 C   0  0  0  0  0  0  0  0  0  0  0  0
   -1.6487   -0.7096    0.0000 C   0  0  0  0  0  0  0  0  0  0  0  0
   -2.0661    0.0000    0.0000 C   0  0  0  0  0  0  0  0  0  0  0  0
    0.8557    0.8557    0.0000 N   0  3  0  0  0  0  0  0  0  0  0  0
    0.8557   -0.8557    0.0000 N   0  0  0  0  0  0  0  0  0  0  0  0
   -0.8348   -0.8557    0.0000 N   0  3  0  0  0  0  0  0  0  0  0  0
   -2.0244    1.4609    0.0000 C   0  0  0  0  0  0  0  0  0  0  0  0
    1.4610    2.0453    0.0000 C   0  0  0  0  0  0  0  0  0  0  0  0
    2.0662   -1.4609    0.0000 C   0  0  0  0  0  0  0  0  0  0  0  0
   -1.4400    2.0453    0.0000 C   0  0  0  0  0  0  0  0  0  0  0  0
   -1.6535    2.8422    0.0000 C   0  0  0  0  0  0  0  0  0  0  0  0
   -2.4504    3.0557    0.0000 C   0  0  0  0  0  0  0  0  0  0  0  0
    2.0662    1.4609    0.0000 C   0  0  0  0  0  0  0  0  0  0  0  0
   -0.8348    0.8557    0.0000 N   0  0  0  0  0  0  0  0  0  0  0  0
    0.0000    0.0000    0.0000 Mg  0  6  0  0  0  0  0  0  0  0  0  0
    1.6745    2.8422    0.0000 C   0  0  0  0  0  0  0  0  0  0  0  0
    1.0911    3.4256    0.0000 O   0  0  0  0  0  0  0  0  0  0  0  0
    0.0000   -2.0871    0.0000 C   0  0  0  0  0  0  0  0  0  0  0  0
    1.4610   -2.0453    0.0000 C   0  0  0  0  0  0  0  0  0  0  0  0
    1.2475   -2.8840    0.0000 C   0  0  0  0  0  0  0  0  0  0  0  0
    1.6600   -3.5985    0.0000 O   0  0  0  0  0  0  0  0  0  0  0  0
    0.2135   -2.8840    0.0000 C   0  0  2  0  0  0  0  0  0  0  0  0
   -1.0240   -3.5985    0.0000 O   0  0  0  0  0  0  0  0  0  0  0  0
   -0.1990   -3.5985    0.0000 C   0  0  0  0  0  0  0  0  0  0  0  0
    0.2135   -4.3129    0.0000 O   0  0  0  0  0  0  0  0  0  0  0  0
   -1.4400   -2.0453    0.0000 C   0  0  1  0  0  0  0  0  0  0  0  0
   -1.4400   -2.8703    0.0000 C   0  0  0  0  0  0  0  0  0  0  0  0
   -2.1545   -3.2828    0.0000 C   0  0  0  0  0  0  0  0  0  0  0  0
   -2.1545   -4.1078    0.0000 C   0  0  0  0  0  0  0  0  0  0  0  0
   -1.4400   -4.5203    0.0000 O   0  0  0  0  0  0  0  0  0  0  0  0
   -2.8690   -4.5203    0.0000 O   0  5  0  0  0  0  0  0  0  0  0  0
   -2.0244   -1.4609    0.0000 C   0  0  2  0  0  0  0  0  0  0  0  0
    1.0385   -4.3129    0.0000 C   0  0  0  0  0  0  0  0  0  0  0  0
    2.8631   -1.6744    0.0000 C   0  0  0  0  0  0  0  0  0  0  0  0
   -2.8213    1.6744    0.0000 C   0  0  0  0  0  0  0  0  0  0  0  0
   -2.8213   -1.6744    0.0000 C   0  0  0  0  0  0  0  0  0  0  0  0
    3.4464    1.0910    0.0000 C   0  0  0  0  0  0  0  0  0  0  0  0
    2.8631    1.6744    0.0000 C   0  0  0  0  0  0  0  0  0  0  0  0
  1 22  1  0  0  0  0
 15  1  1  0  0  0  0
  1 11  2  0  0  0  0
  2  3  2  0  0  0  0
 22  2  1  0  0  0  0
 18  2  1  0  0  0  0
  3  4  1  0  0  0  0
  4 12  2  0  0  0  0
 16  4  1  0  0  0  0
  5  6  2  0  0  0  0
 12  5  1  0  0  0  0
 21  5  1  0  0  0  0
  6  7  1  0  0  0  0
  7 13  1  0  0  0  0
  7 17  2  0  0  0  0
  8 26  1  0  0  0  0
 27  8  2  0  0  0  0
 13  8  1  0  0  0  0
  9 26  2  0  0  0  0
 14  9  1  0  0  0  0
 34  9  1  0  0  0  0
 10 11  1  0  0  0  0
 14 10  2  0  0  0  0
 40 10  1  0  0  0  0
 23 13  1  0  0  0  0
 18 15  2  0  0  0  0
 16 21  2  0  0  0  0
 16 24  1  0  0  0  0
 17 27  1  0  0  0  0
 40 34  1  0  0  0  0
 18 19  1  0  0  0  0
 19 20  2  0  0  0  0
 22 23  1  0  0  0  0
 24 25  2  0  0  0  0
 26 30  1  0  0  0  0
 27 28  1  0  0  0  0
 30 28  1  0  0  0  0
 28 29  2  0  0  0  0
 30 32  1  6  0  0  0
 32 31  2  0  0  0  0
 32 33  1  0  0  0  0
 36 35  1  0  0  0  0
 34 35  1  1  0  0  0
 36 37  1  0  0  0  0
 37 39  1  0  0  0  0
 37 38  2  0  0  0  0
 33 41  1  0  0  0  0
 17 42  1  0  0  0  0
 15 43  1  0  0  0  0
 40 44  1  6  0  0  0
 21 46  1  0  0  0  0
 45 46  1  0  0  0  0
 12 23  1  0  0  0  0
 14 23  1  0  0  0  0
M  CHG  4  12   1  14   1  23  -2  39  -1
M  END

>  <ACTIVITY>
5.00
$$$$
65110

  Mrv0541 05041708522D          

 38 40  0  0  1  0            999 V2000
    7.6138   -8.8559    0.0000 O   0  0  0  0  0  0  0  0  0  0  0  0
    8.3151   -8.4434    0.0000 C   0  0  1  0  0  0  0  0  0  0  0  0
    9.0577   -8.8972    0.0000 C   0  0  1  0  0  0  0  0  0  0  0  0
    9.7588   -8.4847    0.0000 C   0  0  0  0  0  0  0  0  0  0  0  0
    9.7588   -7.6596    0.0000 C   0  0  1  0  0  0  0  0  0  0  0  0
    9.0577   -7.2471    0.0000 C   0  0  2  0  0  0  0  0  0  0  0  0
    8.3151   -7.6596    0.0000 C   0  0  2  0  0  0  0  0  0  0  0  0
    9.0577   -9.7222    0.0000 N   0  0  0  0  0  0  0  0  0  0  0  0
    7.6138   -7.2471    0.0000 O   0  0  0  0  0  0  0  0  0  0  0  0
   10.5014   -7.2471    0.0000 N   0  0  0  0  0  0  0  0  0  0  0  0
    9.0577   -6.4221    0.0000 O   0  0  0  0  0  0  0  0  0  0  0  0
    9.7588   -6.0096    0.0000 C   0  0  1  0  0  0  0  0  0  0  0  0
   10.4602   -6.4221    0.0000 O   0  0  0  0  0  0  0  0  0  0  0  0
   11.1615   -6.0096    0.0000 C   0  0  1  0  0  0  0  0  0  0  0  0
   11.1615   -5.1846    0.0000 C   0  0  2  0  0  0  0  0  0  0  0  0
   10.4602   -4.7721    0.0000 C   0  0  1  0  0  0  0  0  0  0  0  0
    9.7588   -5.1846    0.0000 C   0  0  1  0  0  0  0  0  0  0  0  0
   11.9039   -6.4221    0.0000 C   0  0  0  0  0  0  0  0  0  0  0  0
    9.0164   -4.7721    0.0000 N   0  0  0  0  0  0  0  0  0  0  0  0
   10.4602   -3.9469    0.0000 O   0  0  0  0  0  0  0  0  0  0  0  0
   11.8627   -4.7721    0.0000 O   0  0  0  0  0  0  0  0  0  0  0  0
   11.9039   -7.2471    0.0000 N   0  0  0  0  0  0  0  0  0  0  0  0
    5.7163   -8.2784    0.0000 C   0  0  1  0  0  0  0  0  0  0  0  0
    6.5413   -8.2784    0.0000 C   0  0  2  0  0  0  0  0  0  0  0  0
    6.7888   -7.4946    0.0000 C   0  0  1  0  0  0  0  0  0  0  0  0
    6.1288   -6.9997    0.0000 O   0  0  0  0  0  0  0  0  0  0  0  0
    5.4688   -7.4946    0.0000 C   0  0  2  0  0  0  0  0  0  0  0  0
    4.6851   -7.2471    0.0000 C   0  0  0  0  0  0  0  0  0  0  0  0
    4.0663   -7.7834    0.0000 O   0  0  0  0  0  0  0  0  0  0  0  0
    5.2213   -8.9384    0.0000 O   0  0  0  0  0  0  0  0  0  0  0  0
    7.0364   -8.9384    0.0000 O   0  0  0  0  0  0  0  0  0  0  0  0
    9.7778  -10.1392    0.0000 C   0  0  0  0  0  0  0  0  0  0  0  0
   10.4925   -9.7266    0.0000 C   0  0  2  0  0  0  0  0  0  0  0  0
   11.2071  -10.1392    0.0000 C   0  0  0  0  0  0  0  0  0  0  0  0
   11.9219   -9.7266    0.0000 C   0  0  0  0  0  0  0  0  0  0  0  0
   12.6366  -10.1392    0.0000 N   0  0  0  0  0  0  0  0  0  0  0  0
    9.7772  -10.9645    0.0000 O   0  0  0  0  0  0  0  0  0  0  0  0
   10.4925   -8.9015    0.0000 O   0  0  0  0  0  0  0  0  0  0  0  0
  2  1  1  6  0  0  0
  2  3  1  0  0  0  0
  3  4  1  0  0  0  0
  4  5  1  0  0  0  0
  5  6  1  0  0  0  0
  6  7  1  0  0  0  0
  2  7  1  0  0  0  0
  3  8  1  1  0  0  0
  7  9  1  1  0  0  0
  5 10  1  1  0  0  0
  6 11  1  6  0  0  0
 12 11  1  6  0  0  0
 12 13  1  0  0  0  0
 13 14  1  0  0  0  0
 14 15  1  0  0  0  0
 15 16  1  0  0  0  0
 16 17  1  0  0  0  0
 12 17  1  0  0  0  0
 14 18  1  1  0  0  0
 17 19  1  6  0  0  0
 16 20  1  1  0  0  0
 15 21  1  6  0  0  0
 18 22  1  0  0  0  0
 23 24  1  0  0  0  0
 24 25  1  0  0  0  0
 25 26  1  0  0  0  0
 26 27  1  0  0  0  0
 23 27  1  0  0  0  0
 27 28  1  1  0  0  0
 28 29  1  0  0  0  0
 23 30  1  6  0  0  0
 24 31  1  6  0  0  0
 25  9  1  1  0  0  0
  8 32  1  0  0  0  0
 32 33  1  0  0  0  0
 33 34  1  0  0  0  0
 34 35  1  0  0  0  0
 35 36  1  0  0  0  0
 32 37  2  0  0  0  0
 33 38  1  1  0  0  0
M  END

>  <ACTIVITY>
5.00
$$$$
72760

  Mrv0541 05041708522D          

 27 30  0  0  1  0            999 V2000
    9.7396   -5.2034    0.0000 N   0  0  0  0  0  0  0  0  0  0  0  0
    9.7396   -6.0283    0.0000 C   0  0  2  0  0  0  0  0  0  0  0  0
    9.0251   -4.7909    0.0000 C   0  0  0  0  0  0  0  0  0  0  0  0
    9.0251   -6.4408    0.0000 C   0  0  0  0  0  0  0  0  0  0  0  0
    8.3106   -5.2034    0.0000 C   0  0  1  0  0  0  0  0  0  0  0  0
    8.3106   -6.0283    0.0000 N   0  0  0  0  0  0  0  0  0  0  0  0
   10.5242   -4.9485    0.0000 C   0  0  0  0  0  0  0  0  0  0  0  0
   11.0091   -5.6159    0.0000 C   0  0  0  0  0  0  0  0  0  0  0  0
   10.5243   -6.2833    0.0000 C   0  0  0  0  0  0  0  0  0  0  0  0
    7.5962   -4.7909    0.0000 C   0  0  0  0  0  0  0  0  0  0  0  0
    6.8817   -5.2034    0.0000 C   0  0  0  0  0  0  0  0  0  0  0  0
    6.7955   -6.0238    0.0000 C   0  0  0  0  0  0  0  0  0  0  0  0
    6.1280   -4.8678    0.0000 C   0  0  0  0  0  0  0  0  0  0  0  0
    5.9886   -6.1954    0.0000 N   0  0  0  0  0  0  0  0  0  0  0  0
    5.5760   -5.4810    0.0000 C   0  0  0  0  0  0  0  0  0  0  0  0
    5.8938   -4.0768    0.0000 C   0  0  0  0  0  0  0  0  0  0  0  0
    5.0916   -3.8841    0.0000 C   0  0  0  0  0  0  0  0  0  0  0  0
    4.5236   -4.4825    0.0000 C   0  0  0  0  0  0  0  0  0  0  0  0
    4.7579   -5.2735    0.0000 C   0  0  0  0  0  0  0  0  0  0  0  0
    9.0251   -3.9659    0.0000 O   0  0  0  0  0  0  0  0  0  0  0  0
    9.0251   -7.2658    0.0000 O   0  0  0  0  0  0  0  0  0  0  0  0
    9.8258   -6.8488    0.0000 H   0  0  0  0  0  0  0  0  0  0  0  0
    7.5100   -6.4363    0.0000 C   0  0  0  0  0  0  0  0  0  0  0  0
    7.5100   -7.2613    0.0000 C   0  0  0  0  0  0  0  0  0  0  0  0
    6.7955   -7.6738    0.0000 C   0  0  0  0  0  0  0  0  0  0  0  0
    6.0810   -7.2613    0.0000 C   0  0  0  0  0  0  0  0  0  0  0  0
    6.7955   -8.4988    0.0000 C   0  0  0  0  0  0  0  0  0  0  0  0
  3  1  1  0  0  0  0
  4  2  1  0  0  0  0
  5  3  1  0  0  0  0
  6  4  1  0  0  0  0
  6  5  1  0  0  0  0
  7  1  1  0  0  0  0
  2  1  1  0  0  0  0
  8  7  1  0  0  0  0
  9  2  1  0  0  0  0
  9  8  1  0  0  0  0
  5 10  1  1  0  0  0
 12 11  2  0  0  0  0
 13 11  1  0  0  0  0
 14 12  1  0  0  0  0
 15 14  1  0  0  0  0
 10 11  1  0  0  0  0
 13 16  1  0  0  0  0
 17 16  2  0  0  0  0
 15 13  2  0  0  0  0
 18 17  1  0  0  0  0
 19 15  1  0  0  0  0
 19 18  2  0  0  0  0
  3 20  2  0  0  0  0
  4 21  2  0  0  0  0
  2 22  1  6  0  0  0
 12 23  1  0  0  0  0
 23 24  1  0  0  0  0
 24 25  2  0  0  0  0
 25 26  1  0  0  0  0
 25 27  1  0  0  0  0
M  END

>  <ACTIVITY>
5.00
$$$$
74507

  Mrv0541 05041708522D          

 25 25  0  0  1  0            999 V2000
    7.2287   -3.4042    0.0000 C   0  0  2  0  0  0  0  0  0  0  0  0
    7.9431   -3.8167    0.0000 C   0  0  2  0  0  0  0  0  0  0  0  0
    8.6575   -3.4042    0.0000 C   0  0  0  0  0  0  0  0  0  0  0  0
    9.3729   -3.8884    0.0000 O   0  0  0  0  0  0  0  0  0  0  0  0
    7.9431   -4.7415    0.0000 N   0  0  0  0  0  0  0  0  0  0  0  0
    7.2287   -2.5792    0.0000 O   0  0  0  0  0  0  0  0  0  0  0  0
   10.1846   -3.8817    0.0000 P   0  0  0  0  0  0  0  0  0  0  0  0
   10.1846   -3.0567    0.0000 O   0  0  0  0  0  0  0  0  0  0  0  0
   12.4386   -3.8817    0.0000 C   0  0  1  0  0  0  0  0  0  0  0  0
   11.7242   -4.2945    0.0000 C   0  0  1  0  0  0  0  0  0  0  0  0
   11.7242   -5.1195    0.0000 C   0  0  1  0  0  0  0  0  0  0  0  0
   12.4386   -5.5320    0.0000 C   0  0  1  0  0  0  0  0  0  0  0  0
   13.1532   -5.1195    0.0000 C   0  0  2  0  0  0  0  0  0  0  0  0
   13.1532   -4.2945    0.0000 C   0  0  2  0  0  0  0  0  0  0  0  0
   11.0098   -3.8817    0.0000 O   0  0  0  0  0  0  0  0  0  0  0  0
   12.4386   -3.0567    0.0000 O   0  0  0  0  0  0  0  0  0  0  0  0
   13.8676   -5.5320    0.0000 O   0  0  0  0  0  0  0  0  0  0  0  0
   13.8676   -3.8817    0.0000 O   0  0  0  0  0  0  0  0  0  0  0  0
   11.0098   -5.5320    0.0000 O   0  0  0  0  0  0  0  0  0  0  0  0
   12.4386   -6.3570    0.0000 O   0  0  0  0  0  0  0  0  0  0  0  0
    6.5143   -3.8168    0.0000 R#  0  0  0  0  0  0  0  0  0  0  0  0
    7.9431   -5.5665    0.0000 C   0  0  0  0  0  0  0  0  0  0  0  0
    7.2286   -5.9790    0.0000 R#  0  0  0  0  0  0  0  0  0  0  0  0
    8.6576   -5.9790    0.0000 O   0  0  0  0  0  0  0  0  0  0  0  0
    9.9711   -4.6786    0.0000 O   0  5  0  0  0  0  0  0  0  0  0  0
  1  2  1  0  0  0  0
  2  3  1  0  0  0  0
  3  4  1  0  0  0  0
  2  5  1  6  0  0  0
  1  6  1  1  0  0  0
  4  7  1  0  0  0  0
  7  8  2  0  0  0  0
  9 10  1  0  0  0  0
 10 11  1  0  0  0  0
 11 12  1  0  0  0  0
 12 13  1  0  0  0  0
 13 14  1  0  0  0  0
  9 14  1  0  0  0  0
 10 15  1  1  0  0  0
  7 15  1  0  0  0  0
  9 16  1  6  0  0  0
 13 17  1  6  0  0  0
 14 18  1  1  0  0  0
 11 19  1  1  0  0  0
 12 20  1  1  0  0  0
  1 21  1  0  0  0  0
  5 22  1  0  0  0  0
 22 23  1  0  0  0  0
 22 24  2  0  0  0  0
  7 25  1  0  0  0  0
M  CHG  1  25  -1
M  RGP  2  21   1  23   2
M  END

>  <ACTIVITY>
5.00
$$$$
74987

  Mrv0541 05041708522D          

 36 37  0  0  1  0            999 V2000
    5.2856   -8.7988    0.0000 N   0  0  0  0  0  0  0  0  0  0  0  0
    3.8566   -7.8742    0.0000 R   0  0  0  0  0  0  0  0  0  0  0  0
    4.5712   -7.4617    0.0000 C   0  0  2  0  0  0  0  0  0  0  0  0
    5.2856   -7.8742    0.0000 C   0  0  2  0  0  0  0  0  0  0  0  0
    6.0000   -7.4617    0.0000 C   0  0  0  0  0  0  0  0  0  0  0  0
    6.7154   -7.9457    0.0000 O   0  0  0  0  0  0  0  0  0  0  0  0
    4.5712   -6.6367    0.0000 O   0  0  0  0  0  0  0  0  0  0  0  0
    7.5271   -7.9390    0.0000 P   0  0  0  0  0  0  0  0  0  0  0  0
    7.5271   -7.1140    0.0000 O   0  5  0  0  0  0  0  0  0  0  0  0
    7.5271   -8.7640    0.0000 O   0  0  0  0  0  0  0  0  0  0  0  0
    9.7811   -7.9390    0.0000 C   0  0  1  0  0  0  0  0  0  0  0  0
    9.0667   -8.3519    0.0000 C   0  0  1  0  0  0  0  0  0  0  0  0
    9.0667   -9.1769    0.0000 C   0  0  1  0  0  0  0  0  0  0  0  0
    9.7811   -9.5894    0.0000 C   0  0  1  0  0  0  0  0  0  0  0  0
   10.4957   -9.1769    0.0000 C   0  0  2  0  0  0  0  0  0  0  0  0
   10.4957   -8.3519    0.0000 C   0  0  2  0  0  0  0  0  0  0  0  0
    8.3523   -7.9390    0.0000 O   0  0  0  0  0  0  0  0  0  0  0  0
    9.7811   -7.1140    0.0000 O   0  0  0  0  0  0  0  0  0  0  0  0
   11.2101   -9.5894    0.0000 O   0  0  0  0  0  0  0  0  0  0  0  0
   11.2101   -7.9390    0.0000 O   0  0  0  0  0  0  0  0  0  0  0  0
    8.3523   -9.5894    0.0000 O   0  0  0  0  0  0  0  0  0  0  0  0
    9.7811  -10.4144    0.0000 O   0  0  0  0  0  0  0  0  0  0  0  0
   10.4957   -6.7015    0.0000 C   0  0  0  0  0  0  0  0  0  0  0  0
   11.2101   -5.4640    0.0000 C   0  0  2  0  0  0  0  0  0  0  0  0
   10.4957   -5.8765    0.0000 C   0  0  2  0  0  0  0  0  0  0  0  0
   11.2101   -7.1140    0.0000 O   0  0  0  0  0  0  0  0  0  0  0  0
   11.9245   -6.7015    0.0000 C   0  0  1  0  0  0  0  0  0  0  0  0
   11.9245   -5.8765    0.0000 C   0  0  1  0  0  0  0  0  0  0  0  0
   12.6392   -7.1140    0.0000 C   0  0  0  0  0  0  0  0  0  0  0  0
   11.2101   -4.6390    0.0000 O   0  0  0  0  0  0  0  0  0  0  0  0
    9.7811   -5.4640    0.0000 O   0  0  0  0  0  0  0  0  0  0  0  0
   12.6392   -5.4640    0.0000 O   0  0  0  0  0  0  0  0  0  0  0  0
   13.3536   -6.7015    0.0000 O   0  0  0  0  0  0  0  0  0  0  0  0
    5.2856   -9.6238    0.0000 C   0  0  0  0  0  0  0  0  0  0  0  0
    4.5711  -10.0363    0.0000 R   0  0  0  0  0  0  0  0  0  0  0  0
    6.0001  -10.0363    0.0000 O   0  0  0  0  0  0  0  0  0  0  0  0
  2  3  1  0  0  0  0
  3  4  1  0  0  0  0
  4  5  1  0  0  0  0
  5  6  1  0  0  0  0
  4  1  1  6  0  0  0
  3  7  1  1  0  0  0
  6  8  1  0  0  0  0
  8  9  1  0  0  0  0
  8 10  2  0  0  0  0
 11 12  1  0  0  0  0
 12 13  1  0  0  0  0
 13 14  1  0  0  0  0
 14 15  1  0  0  0  0
 15 16  1  0  0  0  0
 11 16  1  0  0  0  0
 12 17  1  1  0  0  0
  8 17  1  0  0  0  0
 11 18  1  6  0  0  0
 15 19  1  6  0  0  0
 16 20  1  1  0  0  0
 13 21  1  1  0  0  0
 14 22  1  1  0  0  0
 25 23  1  0  0  0  0
 23 26  1  0  0  0  0
 24 25  1  0  0  0  0
 26 27  1  0  0  0  0
 27 28  1  0  0  0  0
 24 28  1  0  0  0  0
 27 29  1  1  0  0  0
 24 30  1  1  0  0  0
 25 31  1  1  0  0  0
 28 32  1  6  0  0  0
 29 33  1  0  0  0  0
  1 34  1  0  0  0  0
 34 35  1  0  0  0  0
 34 36  2  0  0  0  0
 23 18  1  0  0  0  0
M  CHG  1   9  -1
M  END

>  <ACTIVITY>
5.00
$$$$
30177

  Mrv0541 05041708522D          

 10  9  0  0  0  0            999 V2000
    0.0000    0.0000    0.0000 B   0  5  0  0  0  0  0  0  0  0  0  0
    0.7145   -0.4125    0.0000 O   0  0  0  0  0  0  0  0  0  0  0  0
   -0.7145   -0.4125    0.0000 O   0  0  0  0  0  0  0  0  0  0  0  0
   -0.4125   -0.7145    0.0000 O   0  0  0  0  0  0  0  0  0  0  0  0
    0.0000   -1.4289    0.0000 O   0  0  0  0  0  0  0  0  0  0  0  0
   -0.4125   -2.1434    0.0000 H   0  0  0  0  0  0  0  0  0  0  0  0
   -1.4289    0.0000    0.0000 H   0  0  0  0  0  0  0  0  0  0  0  0
    1.4289    0.0000    0.0000 H   0  0  0  0  0  0  0  0  0  0  0  0
    0.0000    0.8250    0.0000 O   0  0  0  0  0  0  0  0  0  0  0  0
    0.7145    1.2375    0.0000 H   0  0  0  0  0  0  0  0  0  0  0  0
  1  4  1  0  0  0  0
  1  2  1  0  0  0  0
  2  8  1  0  0  0  0
  1  3  1  0  0  0  0
  3  7  1  0  0  0  0
  9  1  1  0  0  0  0
  4  5  1  0  0  0  0
  5  6  1  0  0  0  0
  9 10  1  0  0  0  0
M  CHG  1   1  -1
M  END

>  <ACTIVITY>
5.00
$$$$
87216

  Mrv0541 05041708522D          

 43 48  0  0  0  0            999 V2000
   11.2799   -4.1939    0.0000 C   0  0  0  0  0  0  0  0  0  0  0  0
   11.9943   -4.6065    0.0000 C   0  0  0  0  0  0  0  0  0  0  0  0
   11.9943   -5.4315    0.0000 C   0  0  0  0  0  0  0  0  0  0  0  0
   11.2798   -5.8440    0.0000 C   0  0  0  0  0  0  0  0  0  0  0  0
   10.5654   -5.4315    0.0000 C   0  0  0  0  0  0  0  0  0  0  0  0
    9.8508   -5.8440    0.0000 N   0  3  0  0  0  0  0  0  0  0  0  0
    9.1364   -5.4314    0.0000 C   0  0  0  0  0  0  0  0  0  0  0  0
    8.4220   -5.8439    0.0000 C   0  0  0  0  0  0  0  0  0  0  0  0
    7.7075   -5.4315    0.0000 C   0  0  0  0  0  0  0  0  0  0  0  0
    7.7075   -4.6065    0.0000 C   0  0  0  0  0  0  0  0  0  0  0  0
    8.4221   -4.1938    0.0000 C   0  0  0  0  0  0  0  0  0  0  0  0
    9.1364   -4.6065    0.0000 C   0  0  0  0  0  0  0  0  0  0  0  0
    9.8510   -4.1939    0.0000 N   0  0  0  0  0  0  0  0  0  0  0  0
   10.5654   -4.6065    0.0000 C   0  0  0  0  0  0  0  0  0  0  0  0
   12.7087   -4.1941    0.0000 C   0  0  0  0  0  0  0  0  0  0  0  0
   12.7087   -3.3690    0.0000 C   0  0  0  0  0  0  0  0  0  0  0  0
   11.9943   -2.9565    0.0000 C   0  0  0  0  0  0  0  0  0  0  0  0
   11.2799   -3.3690    0.0000 C   0  0  0  0  0  0  0  0  0  0  0  0
   12.7086   -5.8440    0.0000 N   0  0  0  0  0  0  0  0  0  0  0  0
   13.4231   -5.4315    0.0000 C   0  0  0  0  0  0  0  0  0  0  0  0
   13.4232   -4.6065    0.0000 C   0  0  0  0  0  0  0  0  0  0  0  0
   14.1376   -4.1941    0.0000 C   0  0  0  0  0  0  0  0  0  0  0  0
   14.8522   -4.6065    0.0000 C   0  0  0  0  0  0  0  0  0  0  0  0
   14.8522   -5.4315    0.0000 C   0  0  0  0  0  0  0  0  0  0  0  0
   14.1377   -5.8440    0.0000 C   0  0  0  0  0  0  0  0  0  0  0  0
   15.5715   -4.1911    0.0000 S   0  0  0  0  0  0  0  0  0  0  0  0
   16.2908   -4.6065    0.0000 O   0  5  0  0  0  0  0  0  0  0  0  0
   15.9868   -3.4718    0.0000 O   0  0  0  0  0  0  0  0  0  0  0  0
   15.1561   -3.4718    0.0000 O   0  0  0  0  0  0  0  0  0  0  0  0
   13.4280   -2.9537    0.0000 S   0  0  0  0  0  0  0  0  0  0  0  0
   14.1473   -3.3690    0.0000 O   0  5  0  0  0  0  0  0  0  0  0  0
   13.8434   -2.2344    0.0000 O   0  0  0  0  0  0  0  0  0  0  0  0
   13.0127   -2.2344    0.0000 O   0  0  0  0  0  0  0  0  0  0  0  0
    9.8507   -6.6691    0.0000 C   0  0  0  0  0  0  0  0  0  0  0  0
   10.5652   -7.0816    0.0000 C   0  0  0  0  0  0  0  0  0  0  0  0
    9.1363   -7.0815    0.0000 C   0  0  0  0  0  0  0  0  0  0  0  0
   10.5651   -7.9067    0.0000 C   0  0  0  0  0  0  0  0  0  0  0  0
    9.1362   -7.9065    0.0000 C   0  0  0  0  0  0  0  0  0  0  0  0
    9.8506   -8.3191    0.0000 C   0  0  0  0  0  0  0  0  0  0  0  0
   14.1377   -6.6747    0.0000 S   0  0  0  0  0  0  0  0  0  0  0  0
   13.4183   -7.0899    0.0000 O   0  5  0  0  0  0  0  0  0  0  0  0
   14.5529   -7.3941    0.0000 O   0  0  0  0  0  0  0  0  0  0  0  0
   14.9683   -6.6748    0.0000 O   0  0  0  0  0  0  0  0  0  0  0  0
  1  2  1  0  0  0  0
  2  3  1  0  0  0  0
  3  4  2  0  0  0  0
  4  5  1  0  0  0  0
  5  6  2  0  0  0  0
  6  7  1  0  0  0  0
  7  8  2  0  0  0  0
  8  9  1  0  0  0  0
  9 10  2  0  0  0  0
 10 11  1  0  0  0  0
 11 12  2  0  0  0  0
  7 12  1  0  0  0  0
 12 13  1  0  0  0  0
 13 14  2  0  0  0  0
  5 14  1  0  0  0  0
  1 14  1  0  0  0  0
 15 16  1  0  0  0  0
 16 17  2  0  0  0  0
 17 18  1  0  0  0  0
  1 18  2  0  0  0  0
  2 15  2  0  0  0  0
 20 21  1  0  0  0  0
 21 22  2  0  0  0  0
 22 23  1  0  0  0  0
 23 24  2  0  0  0  0
 24 25  1  0  0  0  0
 20 25  2  0  0  0  0
 19 20  1  0  0  0  0
  3 19  1  0  0  0  0
 23 26  1  0  0  0  0
 26 27  1  0  0  0  0
 26 28  2  0  0  0  0
 26 29  2  0  0  0  0
 16 30  1  0  0  0  0
 30 31  1  0  0  0  0
 30 32  2  0  0  0  0
 30 33  2  0  0  0  0
 35 34  1  0  0  0  0
 36 34  2  0  0  0  0
 37 35  2  0  0  0  0
 38 36  1  0  0  0  0
 39 37  1  0  0  0  0
 39 38  2  0  0  0  0
  6 34  1  0  0  0  0
 25 40  1  0  0  0  0
 40 41  1  0  0  0  0
 40 42  2  0  0  0  0
 40 43  2  0  0  0  0
M  CHG  4   6   1  27  -1  31  -1  41  -1
M  END

>  <ACTIVITY>
5.00
$$$$
136508

  Mrv0541 05041708522D          

 45 48  0  0  0  0            999 V2000
    1.8296   -1.3329    0.0000 C   0  0  0  0  0  0  0  0  0  0  0  0
    0.7497   -2.1176    0.0000 C   0  0  0  0  0  0  0  0  0  0  0  0
    1.0046   -1.3329    0.0000 N   0  0  0  0  0  0  0  0  0  0  0  0
    2.0846   -2.1176    0.0000 C   0  0  0  0  0  0  0  0  0  0  0  0
    2.8692   -2.3725    0.0000 C   0  0  0  0  0  0  0  0  0  0  0  0
    1.4171   -2.6025    0.0000 C   0  0  0  0  0  0  0  0  0  0  0  0
    1.0858    1.0802    0.0000 C   0  0  0  0  0  0  0  0  0  0  0  0
    1.9790    0.0882    0.0000 C   0  0  0  0  0  0  0  0  0  0  0  0
    1.1720    0.2597    0.0000 N   0  0  0  0  0  0  0  0  0  0  0  0
    1.8395    1.4157    0.0000 C   0  0  0  0  0  0  0  0  0  0  0  0
    2.0110    2.2227    0.0000 C   0  0  0  0  0  0  0  0  0  0  0  0
    2.3915    0.8026    0.0000 C   0  0  0  0  0  0  0  0  0  0  0  0
    3.2120    0.8889    0.0000 C   0  0  0  0  0  0  0  0  0  0  0  0
    3.5475    1.6425    0.0000 C   0  0  0  0  0  0  0  0  0  0  0  0
    0.3713    1.4927    0.0000 O   0  0  0  0  0  0  0  0  0  0  0  0
   -0.8196   -2.1176    0.0000 C   0  0  0  0  0  0  0  0  0  0  0  0
   -1.8995   -1.3329    0.0000 C   0  0  0  0  0  0  0  0  0  0  0  0
   -1.0745   -1.3329    0.0000 N   0  0  0  0  0  0  0  0  0  0  0  0
   -2.1544   -2.1176    0.0000 C   0  0  0  0  0  0  0  0  0  0  0  0
   -2.9391   -2.3725    0.0000 C   0  0  0  0  0  0  0  0  0  0  0  0
   -1.4870   -2.6025    0.0000 C   0  0  0  0  0  0  0  0  0  0  0  0
   -1.4870   -3.4275    0.0000 C   0  0  0  0  0  0  0  0  0  0  0  0
   -2.2015   -3.8400    0.0000 C   0  0  0  0  0  0  0  0  0  0  0  0
   -1.4870   -5.0775    0.0000 O   0  5  0  0  0  0  0  0  0  0  0  0
   -2.2015   -4.6650    0.0000 C   0  0  0  0  0  0  0  0  0  0  0  0
   -2.9159   -5.0775    0.0000 O   0  0  0  0  0  0  0  0  0  0  0  0
   -0.0349   -2.3725    0.0000 C   0  0  0  0  0  0  0  0  0  0  0  0
   -2.0489    0.0882    0.0000 C   0  0  0  0  0  0  0  0  0  0  0  0
   -2.4614    0.8026    0.0000 C   0  0  0  0  0  0  0  0  0  0  0  0
   -3.2818    0.8889    0.0000 C   0  0  0  0  0  0  0  0  0  0  0  0
   -1.9093    1.4157    0.0000 C   0  0  0  0  0  0  0  0  0  0  0  0
   -2.0809    2.2227    0.0000 C   0  0  0  0  0  0  0  0  0  0  0  0
   -2.8655    2.4776    0.0000 C   0  0  0  0  0  0  0  0  0  0  0  0
   -1.2419    0.2597    0.0000 N   0  0  0  0  0  0  0  0  0  0  0  0
   -1.1556    1.0802    0.0000 C   0  0  0  0  0  0  0  0  0  0  0  0
   -0.4412    1.4927    0.0000 C   0  0  0  0  0  0  0  0  0  0  0  0
    2.3146   -0.6655    0.0000 C   0  0  0  0  0  0  0  0  0  0  0  0
   -2.3844   -0.6655    0.0000 C   0  0  0  0  0  0  0  0  0  0  0  0
    1.4171   -3.4275    0.0000 C   0  0  0  0  0  0  0  0  0  0  0  0
    2.1316   -3.8400    0.0000 C   0  0  0  0  0  0  0  0  0  0  0  0
    2.8460   -5.0775    0.0000 O   0  5  0  0  0  0  0  0  0  0  0  0
    2.1316   -4.6650    0.0000 C   0  0  0  0  0  0  0  0  0  0  0  0
    1.4171   -5.0775    0.0000 O   0  0  0  0  0  0  0  0  0  0  0  0
   -0.4412    2.3177    0.0000 O   0  0  0  0  0  0  0  0  0  0  0  0
   -3.2094   -0.6655    0.0000 O   0  0  0  0  0  0  0  0  0  0  0  0
 37  1  1  0  0  0  0
  1  3  1  0  0  0  0
  1  4  2  0  0  0  0
  6  2  2  0  0  0  0
  3  2  1  0  0  0  0
  2 27  1  0  0  0  0
  4  6  1  0  0  0  0
  4  5  1  0  0  0  0
  6 39  1  0  0  0  0
 15  7  2  0  0  0  0
  7  9  1  0  0  0  0
 10  7  1  0  0  0  0
  8 37  2  0  0  0  0
  9  8  1  0  0  0  0
 12  8  1  0  0  0  0
 10 12  2  0  0  0  0
 10 11  1  0  0  0  0
 12 13  1  0  0  0  0
 13 14  2  0  0  0  0
 16 27  2  0  0  0  0
 18 16  1  0  0  0  0
 21 16  1  0  0  0  0
 38 17  1  0  0  0  0
 18 17  2  0  0  0  0
 19 17  1  0  0  0  0
 19 21  2  0  0  0  0
 19 20  1  0  0  0  0
 21 22  1  0  0  0  0
 22 23  1  0  0  0  0
 23 25  1  0  0  0  0
 25 24  1  0  0  0  0
 25 26  2  0  0  0  0
 28 34  1  0  0  0  0
 29 28  2  0  0  0  0
 38 28  1  0  0  0  0
 31 29  1  0  0  0  0
 29 30  1  0  0  0  0
 31 35  2  0  0  0  0
 31 32  1  0  0  0  0
 32 33  2  0  0  0  0
 34 35  1  0  0  0  0
 35 36  1  0  0  0  0
 39 40  1  0  0  0  0
 40 42  1  0  0  0  0
 42 41  1  0  0  0  0
 42 43  2  0  0  0  0
 36 44  2  0  0  0  0
 38 45  2  0  0  0  0
M  CHG  2  24  -1  41  -1
M  END

>  <ACTIVITY>
5.00
$$$$
41132

  Mrv0541 05041708522D          

  9  8  0  0  0  0            999 V2000
    0.0000    0.0000    0.0000 B   0  5  0  0  0  0  0  0  0  0  0  0
    0.0000    0.8250    0.0000 O   0  0  0  0  0  0  0  0  0  0  0  0
    0.7145    1.2375    0.0000 H   0  0  0  0  0  0  0  0  0  0  0  0
   -0.7145   -1.2375    0.0000 H   0  0  0  0  0  0  0  0  0  0  0  0
    0.0000   -0.8250    0.0000 O   0  0  0  0  0  0  0  0  0  0  0  0
   -0.8250    0.0000    0.0000 O   0  0  0  0  0  0  0  0  0  0  0  0
   -1.2375    0.7145    0.0000 H   0  0  0  0  0  0  0  0  0  0  0  0
    0.8250    0.0000    0.0000 O   0  0  0  0  0  0  0  0  0  0  0  0
    1.2375   -0.7145    0.0000 H   0  0  0  0  0  0  0  0  0  0  0  0
  1  2  1  0  0  0  0
  1  5  1  0  0  0  0
  1  8  1  0  0  0  0
  1  6  1  0  0  0  0
  2  3  1  0  0  0  0
  5  4  1  0  0  0  0
  6  7  1  0  0  0  0
  8  9  1  0  0  0  0
M  CHG  1   1  -1
M  END

>  <ACTIVITY>
5.00
$$$$
79743

  Mrv0541 05041708522D          

 15 17  0  0  0  0            999 V2000
    9.3745    0.5808    0.0000 C   0  0  0  0  0  0  0  0  0  0  0  0
    8.8224    1.1939    0.0000 C   0  0  0  0  0  0  0  0  0  0  0  0
    9.0773    1.9785    0.0000 C   0  0  0  0  0  0  0  0  0  0  0  0
    9.8843    2.1501    0.0000 C   0  0  0  0  0  0  0  0  0  0  0  0
   10.4364    1.5370    0.0000 C   0  0  0  0  0  0  0  0  0  0  0  0
   11.2613    1.5370    0.0000 C   0  0  0  0  0  0  0  0  0  0  0  0
   11.8134    2.1501    0.0000 C   0  0  0  0  0  0  0  0  0  0  0  0
   12.6202    1.9786    0.0000 C   0  0  0  0  0  0  0  0  0  0  0  0
   12.8753    1.1940    0.0000 C   0  0  0  0  0  0  0  0  0  0  0  0
   12.3232    0.5809    0.0000 C   0  0  0  0  0  0  0  0  0  0  0  0
   10.1815    0.7524    0.0000 C   0  0  0  0  0  0  0  0  0  0  0  0
   11.5163    0.7524    0.0000 C   0  0  0  0  0  0  0  0  0  0  0  0
   10.8489    0.2675    0.0000 O   0  0  0  0  0  0  0  0  0  0  0  0
    8.5253    2.5916    0.0000 O   0  0  0  0  0  0  0  0  0  0  0  0
   13.6823    1.0225    0.0000 Cl  0  0  0  0  0  0  0  0  0  0  0  0
  1  2  1  0  0  0  0
  1 11  2  0  0  0  0
  2  3  2  0  0  0  0
  3  4  1  0  0  0  0
  4  5  2  0  0  0  0
  5 11  1  0  0  0  0
  6  7  2  0  0  0  0
  6 12  1  0  0  0  0
  7  8  1  0  0  0  0
  8  9  2  0  0  0  0
  9 10  1  0  0  0  0
 10 12  2  0  0  0  0
 11 13  1  0  0  0  0
 12 13  1  0  0  0  0
  6  5  1  0  0  0  0
  3 14  1  0  0  0  0
  9 15  1  0  0  0  0
M  END

>  <ACTIVITY>
5.00
$$$$
2678

  Mrv0541 05041708522D          

 19 20  0  0  0  0            999 V2000
    0.0651   -0.1132    0.0000 C   0  0  0  0  0  0  0  0  0  0  0  0
    0.7783    0.3017    0.0000 C   0  0  0  0  0  0  0  0  0  0  0  0
   -0.6515   -0.5246    0.0000 C   0  0  0  0  0  0  0  0  0  0  0  0
   -0.3497    0.6000    0.0000 C   0  0  0  0  0  0  0  0  0  0  0  0
    0.4801   -0.8298    0.0000 C   0  0  0  0  0  0  0  0  0  0  0  0
    0.7783    1.1246    0.0000 C   0  0  0  0  0  0  0  0  0  0  0  0
    1.4950   -0.1132    0.0000 C   0  0  0  0  0  0  0  0  0  0  0  0
   -0.6515   -1.3475    0.0000 C   0  0  0  0  0  0  0  0  0  0  0  0
   -1.3612   -0.1132    0.0000 C   0  0  0  0  0  0  0  0  0  0  0  0
   -1.1726    0.6000    0.0000 C   0  0  0  0  0  0  0  0  0  0  0  0
    0.0651    1.3166    0.0000 O   0  0  0  0  0  0  0  0  0  0  0  0
    1.4950    1.5360    0.0000 C   0  0  0  0  0  0  0  0  0  0  0  0
    2.2081    0.3017    0.0000 C   0  0  0  0  0  0  0  0  0  0  0  0
   -1.3612   -1.7623    0.0000 C   0  0  0  0  0  0  0  0  0  0  0  0
   -2.0778   -0.5246    0.0000 C   0  0  0  0  0  0  0  0  0  0  0  0
    2.2081    1.1246    0.0000 C   0  0  0  0  0  0  0  0  0  0  0  0
   -2.0778   -1.3475    0.0000 C   0  0  0  0  0  0  0  0  0  0  0  0
    2.9178    1.5360    0.0000 N   0  0  0  0  0  0  0  0  0  0  0  0
   -2.7875   -1.7623    0.0000 N   0  0  0  0  0  0  0  0  0  0  0  0
  1  2  1  0  0  0  0
  1  3  1  0  0  0  0
  1  4  1  0  0  0  0
  1  5  1  0  0  0  0
  2  6  2  0  0  0  0
  2  7  1  0  0  0  0
  3  8  1  0  0  0  0
  3  9  2  0  0  0  0
  4 10  1  0  0  0  0
  4 11  2  0  0  0  0
  6 12  1  0  0  0  0
  7 13  2  0  0  0  0
  8 14  2  0  0  0  0
  9 15  1  0  0  0  0
 12 16  2  0  0  0  0
 14 17  1  0  0  0  0
 16 18  1  0  0  0  0
 17 19  1  0  0  0  0
 13 16  1  0  0  0  0
 15 17  2  0  0  0  0
M  END

>  <ACTIVITY>
5.00
$$$$
2681

  Mrv0541 05041708522D          

 51 55  0  0  1  0            999 V2000
    8.0919  -11.9722    0.0000 C   0  0  0  0  0  0  0  0  0  0  0  0
    8.0925  -12.7976    0.0000 C   0  0  1  0  0  0  0  0  0  0  0  0
    8.8040  -11.5589    0.0000 O   0  0  0  0  0  0  0  0  0  0  0  0
    7.4284  -13.2843    0.0000 N   0  0  0  0  0  0  0  0  0  0  0  0
    6.7110  -12.8684    0.0000 C   0  0  0  0  0  0  0  0  0  0  0  0
    5.9962  -13.2811    0.0000 C   0  0  2  0  0  0  0  0  0  0  0  0
    5.2857  -12.8684    0.0000 C   0  0  0  0  0  0  0  0  0  0  0  0
    4.5708  -13.2811    0.0000 C   0  0  0  0  0  0  0  0  0  0  0  0
    6.7117  -12.0429    0.0000 O   0  0  0  0  0  0  0  0  0  0  0  0
    5.9962  -14.1065    0.0000 N   0  0  0  0  0  0  0  0  0  0  0  0
    5.2836  -14.5193    0.0000 C   0  0  0  0  0  0  0  0  0  0  0  0
    6.7131  -14.5193    0.0000 C   0  0  0  0  0  0  0  0  0  0  0  0
    3.8592  -12.8702    0.0000 C   0  0  0  0  0  0  0  0  0  0  0  0
    3.1443  -13.2829    0.0000 C   0  0  0  0  0  0  0  0  0  0  0  0
    3.1454  -14.1065    0.0000 C   0  0  0  0  0  0  0  0  0  0  0  0
    3.8612  -14.5176    0.0000 C   0  0  0  0  0  0  0  0  0  0  0  0
    4.5717  -14.1048    0.0000 C   0  0  0  0  0  0  0  0  0  0  0  0
    8.8002  -13.2088    0.0000 C   0  0  2  0  0  0  0  0  0  0  0  0
    9.5150  -12.7961    0.0000 C   0  0  0  0  0  0  0  0  0  0  0  0
   10.2256  -13.2088    0.0000 C   0  0  0  0  0  0  0  0  0  0  0  0
    8.8002  -14.0342    0.0000 C   0  0  0  0  0  0  0  0  0  0  0  0
    8.4367  -10.1417    0.0000 C   0  0  0  0  0  0  0  0  0  0  0  0
    9.1474  -10.5502    0.0000 N   0  0  0  0  0  0  0  0  0  0  0  0
    9.8622  -10.1374    0.0000 C   0  0  1  0  0  0  0  0  0  0  0  0
   10.5770  -10.5459    0.0000 C   0  0  0  0  0  0  0  0  0  0  0  0
   11.2876  -10.1331    0.0000 C   0  0  0  0  0  0  0  0  0  0  0  0
    7.4164   -7.5440    0.0000 C   0  0  0  0  0  0  0  0  0  0  0  0
    7.4164   -8.3694    0.0000 C   0  0  0  0  0  0  0  0  0  0  0  0
    8.1307   -8.7822    0.0000 C   0  0  0  0  0  0  0  0  0  0  0  0
    8.8450   -8.3694    0.0000 C   0  0  0  0  0  0  0  0  0  0  0  0
    8.8450   -7.5440    0.0000 C   0  0  0  0  0  0  0  0  0  0  0  0
    8.1307   -7.1312    0.0000 C   0  0  0  0  0  0  0  0  0  0  0  0
    9.5622   -7.1319    0.0000 C   0  0  0  0  0  0  0  0  0  0  0  0
    6.6997   -8.7826    0.0000 O   0  0  0  0  0  0  0  0  0  0  0  0
   10.5851   -7.7238    0.0000 C   0  0  0  0  0  0  0  0  0  0  0  0
   10.5835   -8.9091    0.0000 N   0  0  0  0  0  0  0  0  0  0  0  0
    9.8604   -9.3120    0.0000 C   0  0  0  0  0  0  0  0  0  0  0  0
    8.4349   -9.3162    0.0000 O   0  0  0  0  0  0  0  0  0  0  0  0
    9.1459   -8.8949    0.0000 O   0  0  0  0  0  0  0  0  0  0  0  0
   11.9994  -10.5463    0.0000 C   0  0  0  0  0  0  0  0  0  0  0  0
   12.7143  -10.1335    0.0000 C   0  0  0  0  0  0  0  0  0  0  0  0
   12.7133   -9.3098    0.0000 C   0  0  0  0  0  0  0  0  0  0  0  0
   11.9975   -8.8988    0.0000 C   0  0  0  0  0  0  0  0  0  0  0  0
   11.2827   -9.3116    0.0000 C   0  0  0  0  0  0  0  0  0  0  0  0
    7.7159  -10.5525    0.0000 C   0  0  2  0  0  0  0  0  0  0  0  0
    7.0087  -10.1369    0.0000 C   0  0  2  0  0  0  0  0  0  0  0  0
    6.3942  -10.6818    0.0000 C   0  0  0  0  0  0  0  0  0  0  0  0
    6.7224  -11.4379    0.0000 C   0  0  0  0  0  0  0  0  0  0  0  0
    7.5405  -11.3554    0.0000 N   0  0  0  0  0  0  0  0  0  0  0  0
    8.2504  -10.8799    0.0000 H   0  0  0  0  0  0  0  0  0  0  0  0
    6.2888   -9.7225    0.0000 H   0  0  0  0  0  0  0  0  0  0  0  0
  6  7  1  0  0  0  0
 25 26  1  0  0  0  0
  2  4  1  6  0  0  0
  7  8  1  0  0  0  0
  8 13  2  0  0  0  0
 13 14  1  0  0  0  0
 14 15  2  0  0  0  0
 27 28  1  0  0  0  0
 28 29  2  0  0  0  0
 29 30  1  0  0  0  0
 30 31  2  0  0  0  0
 31 32  1  0  0  0  0
 32 27  2  0  0  0  0
 15 16  1  0  0  0  0
 31 33  1  0  0  0  0
 16 17  2  0  0  0  0
 28 34  1  0  0  0  0
 17  8  1  0  0  0  0
 33 35  2  0  0  0  0
  5  9  2  0  0  0  0
 35 36  1  0  0  0  0
  2 18  1  0  0  0  0
 24 37  1  0  0  0  0
 37 36  1  0  0  0  0
  4  5  1  0  0  0  0
 22 38  2  0  0  0  0
 18 19  1  0  0  0  0
 37 39  2  0  0  0  0
  6 10  1  1  0  0  0
 19 20  1  0  0  0  0
  1  3  2  0  0  0  0
 18 21  1  6  0  0  0
 10 11  1  0  0  0  0
 26 40  2  0  0  0  0
 40 41  1  0  0  0  0
 41 42  2  0  0  0  0
 42 43  1  0  0  0  0
 43 44  2  0  0  0  0
 44 26  1  0  0  0  0
 45 22  1  0  0  0  0
  5  6  1  0  0  0  0
 22 23  1  0  0  0  0
 10 12  1  0  0  0  0
 23 24  1  0  0  0  0
 45 46  1  0  0  0  0
 46 47  1  0  0  0  0
 47 48  1  0  0  0  0
 48 49  1  0  0  0  0
 49 45  1  0  0  0  0
 34 46  1  0  0  0  0
 49  1  1  0  0  0  0
  1  2  1  0  0  0  0
 45 50  1  6  0  0  0
 24 25  1  6  0  0  0
 46 51  1  1  0  0  0
M  END

>  <ACTIVITY>
5.00
$$$$
2748

  Mrv0541 05041708522D          

 52 56  0  0  0  0            999 V2000
   12.3389   -0.7722    0.0000 C   0  0  1  0  0  0  0  0  0  0  0  0
   12.3389   -1.5972    0.0000 C   0  0  1  0  0  0  0  0  0  0  0  0
   11.6244   -0.3597    0.0000 O   0  0  0  0  0  0  0  0  0  0  0  0
   11.6244   -2.0097    0.0000 C   0  0  2  0  0  0  0  0  0  0  0  0
   10.9099   -0.7722    0.0000 C   0  0  1  0  0  0  0  0  0  0  0  0
   10.9099   -1.5972    0.0000 C   0  0  1  0  0  0  0  0  0  0  0  0
   13.0534   -0.3597    0.0000 O   0  0  0  0  0  0  0  0  0  0  0  0
   13.8391   -0.7997    0.0000 C   0  0  1  0  0  0  0  0  0  0  0  0
   14.5218   -0.3935    0.0000 C   0  0  0  0  0  0  0  0  0  0  0  0
   14.5114    0.4008    0.0000 C   0  0  0  0  0  0  0  0  0  0  0  0
   15.2150   -0.7817    0.0000 C   0  0  0  0  0  0  0  0  0  0  0  0
   15.1942    0.8071    0.0000 C   0  0  0  0  0  0  0  0  0  0  0  0
   15.8977   -0.3755    0.0000 C   0  0  0  0  0  0  0  0  0  0  0  0
   15.8873    0.4189    0.0000 C   0  0  0  0  0  0  0  0  0  0  0  0
   13.8499   -1.6246    0.0000 C   0  0  0  0  0  0  0  0  0  0  0  0
   13.8608   -2.4496    0.0000 N   0  0  0  0  0  0  0  0  0  0  0  0
   13.0534   -2.0097    0.0000 O   0  0  0  0  0  0  0  0  0  0  0  0
   10.1954   -0.3597    0.0000 C   0  0  0  0  0  0  0  0  0  0  0  0
   11.6244   -2.8347    0.0000 O   0  0  0  0  0  0  0  0  0  0  0  0
   10.1954   -2.0097    0.0000 O   0  0  0  0  0  0  0  0  0  0  0  0
    9.4810   -0.7722    0.0000 O   0  0  0  0  0  0  0  0  0  0  0  0
    8.7665   -0.3597    0.0000 C   0  0  1  0  0  0  0  0  0  0  0  0
    8.0520   -0.7721    0.0000 C   0  0  1  0  0  0  0  0  0  0  0  0
    8.7665    0.4654    0.0000 O   0  0  0  0  0  0  0  0  0  0  0  0
    7.3375   -0.3596    0.0000 C   0  0  2  0  0  0  0  0  0  0  0  0
    8.0520    0.8779    0.0000 C   0  0  0  0  0  0  0  0  0  0  0  0
    7.3376    0.4654    0.0000 C   0  0  1  0  0  0  0  0  0  0  0  0
    8.0520   -1.5971    0.0000 O   0  0  0  0  0  0  0  0  0  0  0  0
    6.6230   -0.7720    0.0000 O   0  0  0  0  0  0  0  0  0  0  0  0
    6.6231    0.8780    0.0000 O   0  0  0  0  0  0  0  0  0  0  0  0
    5.9086    0.4655    0.0000 C   0  0  0  0  0  0  0  0  0  0  0  0
    5.1942    0.8780    0.0000 C   0  0  0  0  0  0  0  0  0  0  0  0
    5.9086   -0.3595    0.0000 O   0  0  0  0  0  0  0  0  0  0  0  0
    4.4797    0.4655    0.0000 C   0  0  0  0  0  0  0  0  0  0  0  0
    3.0508    2.1155    0.0000 C   0  0  0  0  0  0  0  0  0  0  0  0
    2.3363    1.7030    0.0000 C   0  0  0  0  0  0  0  0  0  0  0  0
    2.3363    0.8780    0.0000 C   0  0  0  0  0  0  0  0  0  0  0  0
    3.0508    0.4654    0.0000 C   0  0  0  0  0  0  0  0  0  0  0  0
    3.7652    0.8780    0.0000 C   0  0  0  0  0  0  0  0  0  0  0  0
    3.7652    1.7030    0.0000 C   0  0  0  0  0  0  0  0  0  0  0  0
    0.9073    1.7030    0.0000 C   0  0  1  0  0  0  0  0  0  0  0  0
    0.9073    0.8780    0.0000 C   0  0  1  0  0  0  0  0  0  0  0  0
    0.1928    2.1155    0.0000 O   0  0  0  0  0  0  0  0  0  0  0  0
    0.1928    0.4654    0.0000 C   0  0  2  0  0  0  0  0  0  0  0  0
   -0.5217    1.7030    0.0000 C   0  0  1  0  0  0  0  0  0  0  0  0
   -0.5217    0.8780    0.0000 C   0  0  1  0  0  0  0  0  0  0  0  0
    1.6218    2.1155    0.0000 O   0  0  0  0  0  0  0  0  0  0  0  0
    1.6218    0.4654    0.0000 O   0  0  0  0  0  0  0  0  0  0  0  0
   -1.2361    2.1155    0.0000 C   0  0  0  0  0  0  0  0  0  0  0  0
    0.1928   -0.3596    0.0000 O   0  0  0  0  0  0  0  0  0  0  0  0
   -1.2361    0.4655    0.0000 O   0  0  0  0  0  0  0  0  0  0  0  0
   -1.9506    1.7030    0.0000 O   0  0  0  0  0  0  0  0  0  0  0  0
  2  1  1  0  0  0  0
  3  1  1  0  0  0  0
  4  2  1  0  0  0  0
  5  3  1  0  0  0  0
  6  4  1  0  0  0  0
  6  5  1  0  0  0  0
  8  7  1  0  0  0  0
 10  9  1  0  0  0  0
 11  9  2  0  0  0  0
 12 10  2  0  0  0  0
 13 11  1  0  0  0  0
 14 12  1  0  0  0  0
 14 13  2  0  0  0  0
  8  9  1  0  0  0  0
  8 15  1  1  0  0  0
 15 16  3  0  0  0  0
  1  7  1  1  0  0  0
  2 17  1  6  0  0  0
  5 18  1  1  0  0  0
  4 19  1  1  0  0  0
  6 20  1  6  0  0  0
 18 21  1  0  0  0  0
 23 22  1  0  0  0  0
 24 22  1  0  0  0  0
 25 23  1  0  0  0  0
 26 24  1  0  0  0  0
 27 25  1  0  0  0  0
 27 26  1  0  0  0  0
 22 21  1  1  0  0  0
 23 28  1  6  0  0  0
 25 29  1  1  0  0  0
 27 30  1  6  0  0  0
 30 31  1  0  0  0  0
 31 32  1  0  0  0  0
 31 33  2  0  0  0  0
 32 34  2  0  0  0  0
 35 36  1  0  0  0  0
 36 37  2  0  0  0  0
 37 38  1  0  0  0  0
 38 39  2  0  0  0  0
 39 40  1  0  0  0  0
 35 40  2  0  0  0  0
 34 39  1  0  0  0  0
 36 47  1  0  0  0  0
 42 41  1  0  0  0  0
 43 41  1  0  0  0  0
 44 42  1  0  0  0  0
 45 43  1  0  0  0  0
 46 44  1  0  0  0  0
 46 45  1  0  0  0  0
 41 47  1  1  0  0  0
 42 48  1  6  0  0  0
 45 49  1  1  0  0  0
 44 50  1  1  0  0  0
 46 51  1  6  0  0  0
 49 52  1  0  0  0  0
M  END

>  <ACTIVITY>
5.00
$$$$
3141
 
  Mrv0541 05041708522D          
 
 36 41  0  0  0  0            999 V2000
   15.4179  -10.1636    0.0000 C   0  0  0  0  0  0  0  0  0  0  0  0
   15.8186  -10.8813    0.0000 C   0  0  0  0  0  0  0  0  0  0  0  0
   16.6435  -10.8941    0.0000 C   0  0  0  0  0  0  0  0  0  0  0  0
   15.3941  -11.5900    0.0000 C   0  0  0  0  0  0  0  0  0  0  0  0
   17.0440  -11.6153    0.0000 C   0  0  0  0  0  0  0  0  0  0  0  0
   17.0643  -10.1820    0.0000 C   0  0  0  0  0  0  0  0  0  0  0  0
   15.7947  -12.3113    0.0000 C   0  0  0  0  0  0  0  0  0  0  0  0
   14.5692  -11.5773    0.0000 O   0  0  0  0  0  0  0  0  0  0  0  0
   17.8723  -11.6281    0.0000 C   0  0  0  0  0  0  0  0  0  0  0  0
   16.6197  -12.3239    0.0000 C   0  0  0  0  0  0  0  0  0  0  0  0
   17.8929  -10.1536    0.0000 C   0  0  0  0  0  0  0  0  0  0  0  0
   18.2968  -10.9126    0.0000 C   0  0  0  0  0  0  0  0  0  0  0  0
   18.2833  -12.3529    0.0000 C   0  0  0  0  0  0  0  0  0  0  0  0
   17.0236  -13.0522    0.0000 O   0  0  0  0  0  0  0  0  0  0  0  0
   19.1253  -10.9185    0.0000 C   0  0  0  0  0  0  0  0  0  0  0  0
   19.1151  -12.3587    0.0000 C   0  0  0  0  0  0  0  0  0  0  0  0
   16.5991  -13.7608    0.0000 C   0  0  0  0  0  0  0  0  0  0  0  0
   19.5362  -11.6398    0.0000 C   0  0  0  0  0  0  0  0  0  0  0  0
   20.3646  -11.6423    0.0000 O   0  0  0  0  0  0  0  0  0  0  0  0
   15.8416   -9.4609    0.0000 C   0  0  0  0  0  0  0  0  0  0  0  0
   15.4409   -8.7432    0.0000 C   0  0  0  0  0  0  0  0  0  0  0  0
   14.6190   -8.7312    0.0000 C   0  0  0  0  0  0  0  0  0  0  0  0
   16.6639   -9.4748    0.0000 O   0  0  0  0  0  0  0  0  0  0  0  0
   14.2182   -8.0130    0.0000 O   0  0  0  0  0  0  0  0  0  0  0  0
   14.6398   -7.3068    0.0000 C   0  0  0  0  0  0  0  0  0  0  0  0
   14.5982  -10.1548    0.0000 C   0  0  0  0  0  0  0  0  0  0  0  0
   14.1987   -9.4386    0.0000 C   0  0  0  0  0  0  0  0  0  0  0  0
   13.3577  -10.8470    0.0000 C   0  0  0  0  0  0  0  0  0  0  0  0
   14.1778  -10.8177    0.0000 C   0  0  0  0  0  0  0  0  0  0  0  0
   12.9582  -10.1307    0.0000 C   0  0  0  0  0  0  0  0  0  0  0  0
   13.3798   -9.4320    0.0000 C   0  0  0  0  0  0  0  0  0  0  0  0
   12.9854   -8.6762    0.0000 C   0  0  0  0  0  0  0  0  0  0  0  0
   12.1694   -8.7017    0.0000 C   0  0  0  0  0  0  0  0  0  0  0  0
   11.7479   -9.4005    0.0000 C   0  0  0  0  0  0  0  0  0  0  0  0
   12.1422  -10.1150    0.0000 C   0  0  0  0  0  0  0  0  0  0  0  0
   10.9255   -9.3847    0.0000 O   0  0  0  0  0  0  0  0  0  0  0  0
 15 18  2  0  0  0  0
 18 19  1  0  0  0  0
  7 10  1  0  0  0  0
 11 12  1  0  0  0  0
 16 18  1  0  0  0  0
  1  2  1  0  0  0  0
  2  3  2  0  0  0  0
  1 20  2  0  0  0  0
 20 21  1  0  0  0  0
 21 22  2  0  0  0  0
 22 27  1  0  0  0  0
 26  1  1  0  0  0  0
  2  4  1  0  0  0  0
 20 23  1  0  0  0  0
  3  5  1  0  0  0  0
 22 24  1  0  0  0  0
  3  6  1  0  0  0  0
 24 25  1  0  0  0  0
  4  7  2  0  0  0  0
  4  8  1  0  0  0  0
  5  9  1  0  0  0  0
  5 10  2  0  0  0  0
 26 27  2  0  0  0  0
 27 31  1  0  0  0  0
 30 28  1  0  0  0  0
 28 29  2  0  0  0  0
 29 26  1  0  0  0  0
  6 11  1  0  0  0  0
  9 12  2  0  0  0  0
  9 13  1  0  0  0  0
 10 14  1  0  0  0  0
 12 15  1  0  0  0  0
 13 16  2  0  0  0  0
 30 31  2  0  0  0  0
 31 32  1  0  0  0  0
 32 33  2  0  0  0  0
 33 34  1  0  0  0  0
 34 35  2  0  0  0  0
 35 30  1  0  0  0  0
 14 17  1  0  0  0  0
 34 36  1  0  0  0  0
M  END

>  <ACTIVITY>
5.00
$$$$
3190

  Mrv0541 05041708522D          

 38 42  0  0  0  0            999 V2000
    0.0271   -0.2334    0.0000 C   0  0  1  0  0  0  0  0  0  0  0  0
    0.7409    0.1726    0.0000 C   0  0  2  0  0  0  0  0  0  0  0  0
   -0.6867    0.1827    0.0000 C   0  0  1  0  0  0  0  0  0  0  0  0
    0.0236   -1.0555    0.0000 C   0  0  1  0  0  0  0  0  0  0  0  0
   -0.2469    0.3992    0.0000 C   0  0  0  0  0  0  0  0  0  0  0  0
    0.7477    0.9946    0.0000 C   0  0  2  0  0  0  0  0  0  0  0  0
    1.4580   -0.2469    0.0000 C   0  0  2  0  0  0  0  0  0  0  0  0
   -1.4006   -0.2266    0.0000 C   0  0  2  0  0  0  0  0  0  0  0  0
   -0.6800    1.0047    0.0000 C   0  0  2  0  0  0  0  0  0  0  0  0
   -0.6935   -1.4716    0.0000 C   0  0  0  0  0  0  0  0  0  0  0  0
    0.7307   -1.4784    0.0000 O   0  0  0  0  0  0  0  0  0  0  0  0
    0.0913    0.9811    0.0000 O   0  0  0  0  0  0  0  0  0  0  0  0
    0.0406    1.4107    0.0000 C   0  0  2  0  0  0  0  0  0  0  0  0
    1.4615    1.4073    0.0000 C   0  0  0  0  0  0  0  0  0  0  0  0
    1.4479   -1.0724    0.0000 C   0  0  0  0  0  0  0  0  0  0  0  0
    2.1651    0.1691    0.0000 O   0  0  0  0  0  0  0  0  0  0  0  0
   -1.4039   -1.0521    0.0000 C   0  0  1  0  0  0  0  0  0  0  0  0
   -2.1144    0.1861    0.0000 C   0  0  0  0  0  0  0  0  0  0  0  0
   -1.4073    0.5987    0.0000 C   0  0  0  0  0  0  0  0  0  0  0  0
   -1.3904    1.4242    0.0000 O   0  0  0  0  0  0  0  0  0  0  0  0
    0.0474    2.2361    0.0000 O   0  0  0  0  0  0  0  0  0  0  0  0
    2.1719    0.9979    0.0000 O   0  0  0  0  0  0  0  0  0  0  0  0
    1.4580    2.2328    0.0000 O   0  0  0  0  0  0  0  0  0  0  0  0
    2.1583   -1.4919    0.0000 O   0  0  0  0  0  0  0  0  0  0  0  0
    2.8789   -0.2436    0.0000 C   0  0  0  0  0  0  0  0  0  0  0  0
   -2.1144   -1.4716    0.0000 C   0  0  0  0  0  0  0  0  0  0  0  0
   -2.8315   -0.2266    0.0000 C   0  0  0  0  0  0  0  0  0  0  0  0
    2.8890    1.4141    0.0000 C   0  0  0  0  0  0  0  0  0  0  0  0
    3.5927    0.1691    0.0000 C   0  0  0  0  0  0  0  0  0  0  0  0
    2.8789   -1.0724    0.0000 O   0  0  0  0  0  0  0  0  0  0  0  0
   -2.8315   -1.0521    0.0000 C   0  0  0  0  0  0  0  0  0  0  0  0
   -2.1144   -2.2970    0.0000 C   0  0  0  0  0  0  0  0  0  0  0  0
   -3.5487    0.1861    0.0000 O   0  0  0  0  0  0  0  0  0  0  0  0
   -3.5487   -1.4716    0.0000 O   0  0  0  0  0  0  0  0  0  0  0  0
    0.7375   -0.6326    0.0000 H   0  0  0  0  0  0  0  0  0  0  0  0
   -0.6901   -0.6258    0.0000 H   0  0  0  0  0  0  0  0  0  0  0  0
    0.0169   -1.8640    0.0000 H   0  0  0  0  0  0  0  0  0  0  0  0
   -1.4107   -1.8607    0.0000 H   0  0  0  0  0  0  0  0  0  0  0  0
  1  2  1  0  0  0  0
  1  3  1  0  0  0  0
  1  4  1  0  0  0  0
  1  5  1  1  0  0  0
  2  6  1  0  0  0  0
  2  7  1  0  0  0  0
  3  8  1  0  0  0  0
  3  9  1  0  0  0  0
  4 10  1  0  0  0  0
  4 11  1  0  0  0  0
  5 12  1  0  0  0  0
  6 13  1  0  0  0  0
  6 14  1  0  0  0  0
  7 15  1  0  0  0  0
  7 16  1  1  0  0  0
  8 17  1  0  0  0  0
  8 18  1  0  0  0  0
  8 19  1  1  0  0  0
  9 20  1  1  0  0  0
 13 21  1  6  0  0  0
 14 22  1  0  0  0  0
 14 23  2  0  0  0  0
 15 24  2  0  0  0  0
 16 25  1  0  0  0  0
 17 26  1  0  0  0  0
 18 27  1  0  0  0  0
 22 28  1  0  0  0  0
 25 29  1  0  0  0  0
 25 30  2  0  0  0  0
 26 31  2  0  0  0  0
 26 32  1  0  0  0  0
 27 33  2  0  0  0  0
 31 34  1  0  0  0  0
  6 12  1  1  0  0  0
  9 13  1  0  0  0  0
 10 17  1  0  0  0  0
 11 15  1  0  0  0  0
 27 31  1  0  0  0  0
  2 35  1  1  0  0  0
  3 36  1  6  0  0  0
  4 37  1  1  0  0  0
 17 38  1  6  0  0  0
M  END

>  <ACTIVITY>
5.00
$$$$
3476

  Mrv0541 05041708522D          

 37 40  0  0  1  0            999 V2000
   15.0401  -16.0059    0.0000 C   0  0  2  0  0  0  0  0  0  0  0  0
   15.7557  -15.5938    0.0000 C   0  0  0  0  0  0  0  0  0  0  0  0
   16.4670  -16.0015    0.0000 N   0  0  0  0  0  0  0  0  0  0  0  0
   17.1783  -15.5894    0.0000 C   0  0  1  0  0  0  0  0  0  0  0  0
   17.8939  -15.9972    0.0000 C   0  0  0  0  0  0  0  0  0  0  0  0
   18.6051  -15.5852    0.0000 C   0  0  0  0  0  0  0  0  0  0  0  0
   14.7330  -12.9981    0.0000 C   0  0  0  0  0  0  0  0  0  0  0  0
   14.7330  -13.8221    0.0000 C   0  0  0  0  0  0  0  0  0  0  0  0
   15.4481  -14.2342    0.0000 C   0  0  0  0  0  0  0  0  0  0  0  0
   16.1632  -13.8221    0.0000 C   0  0  0  0  0  0  0  0  0  0  0  0
   16.1632  -12.9981    0.0000 C   0  0  0  0  0  0  0  0  0  0  0  0
   15.4481  -12.5861    0.0000 C   0  0  0  0  0  0  0  0  0  0  0  0
   16.8768  -12.5867    0.0000 C   0  0  0  0  0  0  0  0  0  0  0  0
   14.0199  -14.2345    0.0000 O   0  0  0  0  0  0  0  0  0  0  0  0
   14.0203  -15.4185    0.0000 C   0  0  1  0  0  0  0  0  0  0  0  0
   17.9021  -13.1771    0.0000 C   0  0  0  0  0  0  0  0  0  0  0  0
   17.9004  -14.3592    0.0000 N   0  0  0  0  0  0  0  0  0  0  0  0
   17.1764  -14.7655    0.0000 C   0  0  0  0  0  0  0  0  0  0  0  0
   15.7538  -14.7698    0.0000 O   0  0  0  0  0  0  0  0  0  0  0  0
   16.4656  -14.3447    0.0000 O   0  0  0  0  0  0  0  0  0  0  0  0
   15.0408  -16.8299    0.0000 N   0  0  0  0  0  0  0  0  0  0  0  0
   13.3002  -15.8331    0.0000 C   0  0  0  0  0  0  0  0  0  0  0  0
   15.7588  -17.2413    0.0000 C   0  0  0  0  0  0  0  0  0  0  0  0
   15.7594  -18.0697    0.0000 C   0  0  1  0  0  0  0  0  0  0  0  0
   16.4718  -16.8287    0.0000 O   0  0  0  0  0  0  0  0  0  0  0  0
   19.3134  -15.9976    0.0000 C   0  0  0  0  0  0  0  0  0  0  0  0
   20.0291  -15.5856    0.0000 C   0  0  0  0  0  0  0  0  0  0  0  0
   20.0280  -14.7633    0.0000 C   0  0  0  0  0  0  0  0  0  0  0  0
   19.3114  -14.3487    0.0000 C   0  0  0  0  0  0  0  0  0  0  0  0
   18.6001  -14.7651    0.0000 C   0  0  0  0  0  0  0  0  0  0  0  0
   15.0955  -18.5528    0.0000 N   0  0  0  0  0  0  0  0  0  0  0  0
   15.3486  -19.3389    0.0000 C   0  0  0  0  0  0  0  0  0  0  0  0
   16.1769  -19.3381    0.0000 C   0  0  0  0  0  0  0  0  0  0  0  0
   16.4286  -18.5516    0.0000 C   0  0  0  0  0  0  0  0  0  0  0  0
   14.3773  -18.1376    0.0000 C   0  0  0  0  0  0  0  0  0  0  0  0
   12.5864  -15.4220    0.0000 C   0  0  0  0  0  0  0  0  0  0  0  0
   13.3011  -16.6572    0.0000 C   0  0  0  0  0  0  0  0  0  0  0  0
  7  8  1  0  0  0  0
  2 19  2  0  0  0  0
  8  9  2  0  0  0  0
 18 20  2  0  0  0  0
  9 10  1  0  0  0  0
  1 21  1  1  0  0  0
 10 11  2  0  0  0  0
 15 22  1  6  0  0  0
 11 12  1  0  0  0  0
 21 23  1  0  0  0  0
 12  7  2  0  0  0  0
 24 23  1  6  0  0  0
  1  2  1  0  0  0  0
 23 25  2  0  0  0  0
 11 13  1  0  0  0  0
  3  4  1  0  0  0  0
  8 14  1  0  0  0  0
 14 15  1  0  0  0  0
  6 26  2  0  0  0  0
 26 27  1  0  0  0  0
 27 28  2  0  0  0  0
 28 29  1  0  0  0  0
 29 30  2  0  0  0  0
 30  6  1  0  0  0  0
  4  5  1  6  0  0  0
 13 16  2  0  0  0  0
 15  1  1  0  0  0  0
  2  3  1  0  0  0  0
 24 31  1  0  0  0  0
 31 32  1  0  0  0  0
 32 33  1  0  0  0  0
 33 34  1  0  0  0  0
 34 24  1  0  0  0  0
 16 17  1  0  0  0  0
 31 35  1  0  0  0  0
  5  6  1  0  0  0  0
 22 36  1  0  0  0  0
  4 18  1  0  0  0  0
 22 37  1  0  0  0  0
 18 17  1  0  0  0  0
M  END

>  <ACTIVITY>
5.00
$$$$
3851
 
  Mrv0541 05041708522D          
 
 25 27  0  0  1  0            999 V2000
   13.6726   -8.7743    0.0000 C   0  0  2  0  0  0  0  0  0  0  0  0
   13.8744   -7.9327    0.0000 C   0  0  2  0  0  0  0  0  0  0  0  0
   14.1749   -9.3987    0.0000 C   0  0  1  0  0  0  0  0  0  0  0  0
   12.8543   -8.7932    0.0000 C   0  0  0  0  0  0  0  0  0  0  0  0
   13.1265   -9.5610    0.0000 C   0  0  0  0  0  0  0  0  0  0  0  0
   14.6307   -7.5896    0.0000 C   0  0  2  0  0  0  0  0  0  0  0  0
   13.1730   -7.5001    0.0000 C   0  0  0  0  0  0  0  0  0  0  0  0
   13.8942   -7.0310    0.0000 O   0  0  0  0  0  0  0  0  0  0  0  0
   15.0099   -9.4124    0.0000 C   0  0  2  0  0  0  0  0  0  0  0  0
   13.9041  -10.1865    0.0000 O   0  0  0  0  0  0  0  0  0  0  0  0
   12.5435   -8.0316    0.0000 C   0  0  0  0  0  0  0  0  0  0  0  0
   12.4234   -9.4918    0.0000 O   0  0  0  0  0  0  0  0  0  0  0  0
   15.3679   -7.9600    0.0000 C   0  0  0  0  0  0  0  0  0  0  0  0
   14.6481   -6.7676    0.0000 C   0  0  0  0  0  0  0  0  0  0  0  0
   15.2492  -10.2065    0.0000 C   0  0  0  0  0  0  0  0  0  0  0  0
   15.5343   -8.7688    0.0000 C   0  0  0  0  0  0  0  0  0  0  0  0
   14.5671  -10.6845    0.0000 C   0  0  0  0  0  0  0  0  0  0  0  0
   15.3717   -6.3740    0.0000 O   0  0  0  0  0  0  0  0  0  0  0  0
   16.0260  -10.4707    0.0000 C   0  0  0  0  0  0  0  0  0  0  0  0
   14.5941  -11.5070    0.0000 O   0  0  0  0  0  0  0  0  0  0  0  0
   16.0674   -6.8029    0.0000 C   0  0  0  0  0  0  0  0  0  0  0  0
   16.7907   -6.4128    0.0000 C   0  0  0  0  0  0  0  0  0  0  0  0
   16.0877   -7.6283    0.0000 O   0  0  0  0  0  0  0  0  0  0  0  0
   14.3910   -8.5973    0.0000 H   0  0  0  0  0  0  0  0  0  0  0  0
   15.8426   -9.6250    0.0000 H   0  0  0  0  0  0  0  0  0  0  0  0
  1  2  1  0  0  0  0
  1  3  1  0  0  0  0
  1  4  1  0  0  0  0
  1  5  1  1  0  0  0
  2  6  1  0  0  0  0
  2  7  1  0  0  0  0
  2  8  1  6  0  0  0
  3  9  1  0  0  0  0
  3 10  1  0  0  0  0
  4 11  1  0  0  0  0
  4 12  2  0  0  0  0
  6 13  1  0  0  0  0
  6 14  1  1  0  0  0
  9 15  1  0  0  0  0
  9 16  1  0  0  0  0
 10 17  1  0  0  0  0
 14 18  1  0  0  0  0
 15 19  2  0  0  0  0
 17 20  2  0  0  0  0
 18 21  1  0  0  0  0
 21 22  1  0  0  0  0
 21 23  2  0  0  0  0
  7 11  2  0  0  0  0
 13 16  1  0  0  0  0
 15 17  1  0  0  0  0
  3 24  1  6  0  0  0
  9 25  1  6  0  0  0
M  END

>  <ACTIVITY>
5.00
$$$$
3872
 
  Mrv0541 05041708522D          
 
 53 60  0  0  1  0            999 V2000
   14.5069  -10.0652    0.0000 C   0  0  2  0  0  0  0  0  0  0  0  0
   14.7518  -10.8552    0.0000 C   0  0  1  0  0  0  0  0  0  0  0  0
   14.9760   -9.3820    0.0000 C   0  0  0  0  0  0  0  0  0  0  0  0
   13.6823  -10.0583    0.0000 C   0  0  0  0  0  0  0  0  0  0  0  0
   14.0791  -11.3314    0.0000 C   0  0  1  0  0  0  0  0  0  0  0  0
   15.5281  -11.1623    0.0000 C   0  0  0  0  0  0  0  0  0  0  0  0
   15.8076   -9.3165    0.0000 C   0  0  0  0  0  0  0  0  0  0  0  0
   14.5621   -8.6678    0.0000 C   0  0  0  0  0  0  0  0  0  0  0  0
   13.4166  -10.8380    0.0000 C   0  0  0  0  0  0  0  0  0  0  0  0
   13.1406   -9.4372    0.0000 C   0  0  0  0  0  0  0  0  0  0  0  0
   14.0687  -12.1559    0.0000 C   0  0  0  0  0  0  0  0  0  0  0  0
   16.2457  -10.7518    0.0000 C   0  0  0  0  0  0  0  0  0  0  0  0
   15.5281  -11.9869    0.0000 C   0  0  0  0  0  0  0  0  0  0  0  0
   16.3734   -9.9271    0.0000 C   0  0  1  0  0  0  0  0  0  0  0  0
   16.1077   -8.5471    0.0000 C   0  0  0  0  0  0  0  0  0  0  0  0
   14.9760   -7.9537    0.0000 C   0  0  0  0  0  0  0  0  0  0  0  0
   13.7375   -8.6678    0.0000 C   0  0  0  0  0  0  0  0  0  0  0  0
   12.6093  -10.9967    0.0000 C   0  0  0  0  0  0  0  0  0  0  0  0
   12.3333   -9.5959    0.0000 C   0  0  0  0  0  0  0  0  0  0  0  0
   13.3477  -12.5597    0.0000 C   0  0  0  0  0  0  0  0  0  0  0  0
   14.7794  -12.5768    0.0000 C   0  0  0  0  0  0  0  0  0  0  0  0
   16.9600  -11.1623    0.0000 C   0  0  0  0  0  0  0  0  0  0  0  0
   16.2457  -12.4009    0.0000 C   0  0  0  0  0  0  0  0  0  0  0  0
   17.1600   -9.6857    0.0000 C   0  0  0  0  0  0  0  0  0  0  0  0
   16.9185   -8.4263    0.0000 C   0  0  0  0  0  0  0  0  0  0  0  0
   15.5868   -7.9053    0.0000 C   0  0  0  0  0  0  0  0  0  0  0  0
   14.5655   -7.2394    0.0000 C   0  0  0  0  0  0  0  0  0  0  0  0
   13.3270   -7.9537    0.0000 C   0  0  0  0  0  0  0  0  0  0  0  0
   12.0676  -10.3757    0.0000 C   0  0  0  0  0  0  0  0  0  0  0  0
   12.3402  -11.7764    0.0000 O   0  0  0  0  0  0  0  0  0  0  0  0
   11.7916   -8.9749    0.0000 O   0  0  0  0  0  0  0  0  0  0  0  0
   13.3372  -13.3842    0.0000 C   0  0  0  0  0  0  0  0  0  0  0  0
   14.7692  -13.4014    0.0000 C   0  0  0  0  0  0  0  0  0  0  0  0
   16.9600  -11.9869    0.0000 C   0  0  0  0  0  0  0  0  0  0  0  0
   17.6741  -10.7518    0.0000 O   0  0  0  0  0  0  0  0  0  0  0  0
   16.2457  -13.2256    0.0000 O   0  0  0  0  0  0  0  0  0  0  0  0
   17.7639  -10.2446    0.0000 C   0  0  0  0  0  0  0  0  0  0  0  0
   17.3430   -8.8783    0.0000 C   0  0  0  0  0  0  0  0  0  0  0  0
   17.2187   -7.6570    0.0000 C   0  0  0  0  0  0  0  0  0  0  0  0
   15.8870   -7.1360    0.0000 C   0  0  0  0  0  0  0  0  0  0  0  0
   13.7375   -7.2394    0.0000 C   0  0  0  0  0  0  0  0  0  0  0  0
   14.0480  -13.8052    0.0000 C   0  0  0  0  0  0  0  0  0  0  0  0
   18.5505  -10.0030    0.0000 C   0  0  0  0  0  0  0  0  0  0  0  0
   18.1296   -8.6368    0.0000 C   0  0  0  0  0  0  0  0  0  0  0  0
   16.7046   -7.0117    0.0000 C   0  0  0  0  0  0  0  0  0  0  0  0
   18.0329   -7.5327    0.0000 O   0  0  0  0  0  0  0  0  0  0  0  0
   15.3729   -6.4942    0.0000 O   0  0  0  0  0  0  0  0  0  0  0  0
   13.3270   -6.5253    0.0000 O   0  0  0  0  0  0  0  0  0  0  0  0
   14.0377  -14.6297    0.0000 O   0  0  0  0  0  0  0  0  0  0  0  0
   18.7368   -9.1991    0.0000 C   0  0  0  0  0  0  0  0  0  0  0  0
   19.5234   -8.9542    0.0000 O   0  0  0  0  0  0  0  0  0  0  0  0
   14.2861   -9.2648    0.0000 H   0  0  0  0  0  0  0  0  0  0  0  0
   14.9623  -11.6523    0.0000 H   0  0  0  0  0  0  0  0  0  0  0  0
  1  2  1  0  0  0  0
  1  3  1  0  0  0  0
  1  4  1  0  0  0  0
  2  5  1  0  0  0  0
  2  6  1  0  0  0  0
  3  7  2  0  0  0  0
  3  8  1  0  0  0  0
  4  9  2  0  0  0  0
  4 10  1  0  0  0  0
  5 11  1  6  0  0  0
  6 12  2  0  0  0  0
  6 13  1  0  0  0  0
  7 14  1  0  0  0  0
  7 15  1  0  0  0  0
  8 16  2  0  0  0  0
  8 17  1  0  0  0  0
  9 18  1  0  0  0  0
 10 19  2  0  0  0  0
 11 20  2  0  0  0  0
 11 21  1  0  0  0  0
 12 22  1  0  0  0  0
 13 23  2  0  0  0  0
 14 24  1  6  0  0  0
 15 25  2  0  0  0  0
 15 26  1  0  0  0  0
 16 27  1  0  0  0  0
 17 28  2  0  0  0  0
 18 29  2  0  0  0  0
 18 30  1  0  0  0  0
 19 31  1  0  0  0  0
 20 32  1  0  0  0  0
 21 33  2  0  0  0  0
 22 34  2  0  0  0  0
 22 35  1  0  0  0  0
 23 36  1  0  0  0  0
 24 37  1  0  0  0  0
 24 38  2  0  0  0  0
 25 39  1  0  0  0  0
 26 40  2  0  0  0  0
 27 41  2  0  0  0  0
 32 42  2  0  0  0  0
 37 43  2  0  0  0  0
 38 44  1  0  0  0  0
 39 45  2  0  0  0  0
 39 46  1  0  0  0  0
 40 47  1  0  0  0  0
 41 48  1  0  0  0  0
 42 49  1  0  0  0  0
 43 50  1  0  0  0  0
 50 51  1  0  0  0  0
  5  9  1  0  0  0  0
 12 14  1  0  0  0  0
 19 29  1  0  0  0  0
 23 34  1  0  0  0  0
 28 41  1  0  0  0  0
 33 42  1  0  0  0  0
 40 45  1  0  0  0  0
 44 50  2  0  0  0  0
  1 52  1  6  0  0  0
  2 53  1  1  0  0  0
M  END

>  <ACTIVITY>
5.00
$$$$
4002

  Mrv0541 05041708522D          

 67 74  0  0  0  0            999 V2000
    0.8298  -13.0161    0.0000 C   0  0  1  0  0  0  0  0  0  0  0  0
    0.8254  -13.8393    0.0000 C   0  0  1  0  0  0  0  0  0  0  0  0
    0.1173  -12.6046    0.0000 O   0  0  0  0  0  0  0  0  0  0  0  0
    0.1156  -14.2528    0.0000 C   0  0  2  0  0  0  0  0  0  0  0  0
    1.5411  -14.2566    0.0000 O   0  0  0  0  0  0  0  0  0  0  0  0
   -0.6044  -13.0136    0.0000 C   0  0  0  0  0  0  0  0  0  0  0  0
   -0.5977  -13.8385    0.0000 C   0  0  2  0  0  0  0  0  0  0  0  0
    0.1121  -15.0745    0.0000 O   0  0  0  0  0  0  0  0  0  0  0  0
   -1.3182  -14.2496    0.0000 O   0  0  0  0  0  0  0  0  0  0  0  0
    4.4155  -10.9614    0.0000 C   0  0  2  0  0  0  0  0  0  0  0  0
    3.6965  -11.3749    0.0000 C   0  0  2  0  0  0  0  0  0  0  0  0
    5.1239  -11.3819    0.0000 C   0  0  2  0  0  0  0  0  0  0  0  0
    3.6929  -10.5471    0.0000 C   0  0  0  0  0  0  0  0  0  0  0  0
    4.4224  -10.1371    0.0000 C   0  0  0  0  0  0  0  0  0  0  0  0
    3.6929  -12.1991    0.0000 C   0  0  2  0  0  0  0  0  0  0  0  0
    2.9844  -10.9579    0.0000 C   0  0  0  0  0  0  0  0  0  0  0  0
    5.8360  -10.9718    0.0000 C   0  0  1  0  0  0  0  0  0  0  0  0
    5.1239  -12.2027    0.0000 C   0  0  0  0  0  0  0  0  0  0  0  0
    5.1345   -9.7297    0.0000 C   0  0  0  0  0  0  0  0  0  0  0  0
    2.9844  -12.6100    0.0000 C   0  0  2  0  0  0  0  0  0  0  0  0
    4.4085  -12.6134    0.0000 C   0  0  0  0  0  0  0  0  0  0  0  0
    2.2611  -11.3749    0.0000 C   0  0  0  0  0  0  0  0  0  0  0  0
    5.8429  -10.1509    0.0000 C   0  0  2  0  0  0  0  0  0  0  0  0
    7.2601  -10.9892    0.0000 C   0  0  0  0  0  0  0  0  0  0  0  0
    5.8290  -11.7926    0.0000 C   0  0  0  0  0  0  0  0  0  0  0  0
    2.2611  -12.1991    0.0000 C   0  0  2  0  0  0  0  0  0  0  0  0
    3.3875  -13.3220    0.0000 C   0  0  0  0  0  0  0  0  0  0  0  0
    2.5596  -13.3220    0.0000 C   0  0  0  0  0  0  0  0  0  0  0  0
    6.5619   -9.7472    0.0000 C   0  0  0  0  0  0  0  0  0  0  0  0
    5.8395   -9.3232    0.0000 C   0  0  0  0  0  0  0  0  0  0  0  0
    7.2705  -10.1649    0.0000 C   0  0  1  0  0  0  0  0  0  0  0  0
    1.5533  -12.6100    0.0000 O   0  0  0  0  0  0  0  0  0  0  0  0
    2.9635  -14.0410    0.0000 O   0  0  0  0  0  0  0  0  0  0  0  0
    6.5550   -8.9229    0.0000 C   0  0  1  0  0  0  0  0  0  0  0  0
    7.9867  -10.5785    0.0000 O   0  0  0  0  0  0  0  0  0  0  0  0
    7.2705   -8.5059    0.0000 C   0  0  0  0  0  0  0  0  0  0  0  0
    5.8395   -8.5093    0.0000 C   0  0  0  0  0  0  0  0  0  0  0  0
    8.6981  -10.9928    0.0000 C   0  0  2  0  0  0  0  0  0  0  0  0
    7.9867   -8.9194    0.0000 C   0  0  0  0  0  0  0  0  0  0  0  0
    8.6911  -11.8170    0.0000 O   0  0  0  0  0  0  0  0  0  0  0  0
    9.4101  -10.5819    0.0000 C   0  0  1  0  0  0  0  0  0  0  0  0
    8.6981   -8.5059    0.0000 C   0  0  1  0  0  0  0  0  0  0  0  0
    9.4066  -12.2306    0.0000 C   0  0  1  0  0  0  0  0  0  0  0  0
   10.1256  -10.9962    0.0000 C   0  0  2  0  0  0  0  0  0  0  0  0
    9.4171   -9.7576    0.0000 O   0  0  0  0  0  0  0  0  0  0  0  0
    9.4066   -8.9159    0.0000 C   0  0  0  0  0  0  0  0  0  0  0  0
    8.6945   -7.6816    0.0000 O   0  0  0  0  0  0  0  0  0  0  0  0
   10.1221  -11.8240    0.0000 C   0  0  2  0  0  0  0  0  0  0  0  0
    9.4066  -13.0584    0.0000 C   0  0  0  0  0  0  0  0  0  0  0  0
   10.8446  -10.5889    0.0000 O   0  0  0  0  0  0  0  0  0  0  0  0
   10.1221   -8.4989    0.0000 C   0  0  0  0  0  0  0  0  0  0  0  0
    8.8180   -9.4983    0.0000 C   0  0  0  0  0  0  0  0  0  0  0  0
   10.1221   -9.3266    0.0000 O   0  0  0  0  0  0  0  0  0  0  0  0
   10.8376  -12.2376    0.0000 O   0  0  0  0  0  0  0  0  0  0  0  0
   10.1151  -13.4762    0.0000 O   0  0  0  0  0  0  0  0  0  0  0  0
   10.1082  -14.3074    0.0000 C   0  0  1  0  0  0  0  0  0  0  0  0
   10.8307  -14.7139    0.0000 C   0  0  1  0  0  0  0  0  0  0  0  0
    9.3962  -14.7209    0.0000 O   0  0  0  0  0  0  0  0  0  0  0  0
   10.8307  -15.5452    0.0000 C   0  0  1  0  0  0  0  0  0  0  0  0
   11.5462  -14.3004    0.0000 O   0  0  0  0  0  0  0  0  0  0  0  0
    9.3962  -15.5487    0.0000 C   0  0  2  0  0  0  0  0  0  0  0  0
   10.1151  -15.9595    0.0000 C   0  0  2  0  0  0  0  0  0  0  0  0
   11.5497  -15.9561    0.0000 O   0  0  0  0  0  0  0  0  0  0  0  0
    8.6841  -15.9665    0.0000 C   0  0  0  0  0  0  0  0  0  0  0  0
   10.1186  -16.7873    0.0000 O   0  0  0  0  0  0  0  0  0  0  0  0
    5.1170  -10.5471    0.0000 H   0  0  0  0  0  0  0  0  0  0  0  0
    3.6860  -13.0270    0.0000 H   0  0  0  0  0  0  0  0  0  0  0  0
  7  9  1  1  0  0  0
  6  7  1  0  0  0  0
  1  2  1  0  0  0  0
  1  3  1  0  0  0  0
  2  4  1  0  0  0  0
  2  5  1  6  0  0  0
  3  6  1  0  0  0  0
  4  7  1  0  0  0  0
  4  8  1  1  0  0  0
 10 11  1  0  0  0  0
 10 12  1  0  0  0  0
 10 13  1  1  0  0  0
 10 14  1  0  0  0  0
 11 15  1  0  0  0  0
 11 16  1  0  0  0  0
 12 17  1  0  0  0  0
 12 18  1  0  0  0  0
 14 19  1  0  0  0  0
 15 20  1  0  0  0  0
 15 21  1  0  0  0  0
 16 22  1  0  0  0  0
 17 23  1  0  0  0  0
 17 24  1  0  0  0  0
 17 25  1  6  0  0  0
 20 26  1  0  0  0  0
 20 27  1  1  0  0  0
 20 28  1  6  0  0  0
 23 29  1  0  0  0  0
 23 30  1  1  0  0  0
 24 31  1  0  0  0  0
 26 32  1  1  0  0  0
 27 33  1  0  0  0  0
 29 34  1  0  0  0  0
 31 35  1  1  0  0  0
 34 36  1  0  0  0  0
 34 37  1  6  0  0  0
 38 35  1  1  0  0  0
 36 39  1  0  0  0  0
 38 40  1  0  0  0  0
 38 41  1  0  0  0  0
 39 42  1  0  0  0  0
 40 43  1  0  0  0  0
 41 44  1  0  0  0  0
 41 45  1  6  0  0  0
 42 46  1  0  0  0  0
 42 47  1  6  0  0  0
 43 48  1  0  0  0  0
 43 49  1  1  0  0  0
 44 50  1  1  0  0  0
 46 51  1  0  0  0  0
 46 52  1  0  0  0  0
 46 53  1  0  0  0  0
 48 54  1  6  0  0  0
 49 55  1  0  0  0  0
 56 55  1  1  0  0  0
 56 57  1  0  0  0  0
 56 58  1  0  0  0  0
 57 59  1  0  0  0  0
 57 60  1  6  0  0  0
 58 61  1  0  0  0  0
 59 62  1  0  0  0  0
 59 63  1  6  0  0  0
 61 64  1  6  0  0  0
 62 65  1  1  0  0  0
 11 13  1  1  0  0  0
 18 21  1  0  0  0  0
 19 23  1  0  0  0  0
 22 26  1  0  0  0  0
 29 31  1  0  0  0  0
 44 48  1  0  0  0  0
 61 62  1  0  0  0  0
 12 66  1  1  0  0  0
 15 67  1  6  0  0  0
  1 32  1  1  0  0  0
M  END

>  <ACTIVITY>
5.00
$$$$
4401
 
  Mrv0541 05041708522D          
 
 26 28  0  0  1  0            999 V2000
   13.6707  -13.2519    0.0000 C   0  0  2  0  0  0  0  0  0  0  0  0
   13.6672  -14.0848    0.0000 C   0  0  0  0  0  0  0  0  0  0  0  0
   14.4581  -13.0007    0.0000 C   0  0  1  0  0  0  0  0  0  0  0  0
   12.9551  -12.8426    0.0000 C   0  0  0  0  0  0  0  0  0  0  0  0
   13.6638  -12.4650    0.0000 O   0  0  0  0  0  0  0  0  0  0  0  0
   14.4513  -14.3422    0.0000 O   0  0  0  0  0  0  0  0  0  0  0  0
   12.9551  -14.4933    0.0000 C   0  0  0  0  0  0  0  0  0  0  0  0
   14.9435  -13.6748    0.0000 C   0  0  2  0  0  0  0  0  0  0  0  0
   14.7071  -12.3033    0.0000 C   0  0  0  0  0  0  0  0  0  0  0  0
   12.2440  -13.2519    0.0000 C   0  0  0  0  0  0  0  0  0  0  0  0
   12.9449  -12.0552    0.0000 C   0  0  0  0  0  0  0  0  0  0  0  0
   12.2440  -14.0772    0.0000 C   0  0  0  0  0  0  0  0  0  0  0  0
   15.7689  -13.6783    0.0000 C   0  0  0  0  0  0  0  0  0  0  0  0
   11.5292  -12.8426    0.0000 C   0  0  0  0  0  0  0  0  0  0  0  0
   11.5292  -14.4933    0.0000 O   0  0  0  0  0  0  0  0  0  0  0  0
   16.1740  -14.3937    0.0000 C   0  0  0  0  0  0  0  0  0  0  0  0
   16.1774  -12.9628    0.0000 C   0  0  0  0  0  0  0  0  0  0  0  0
   10.8138  -13.2519    0.0000 C   0  0  0  0  0  0  0  0  0  0  0  0
   16.9992  -14.3972    0.0000 C   0  0  0  0  0  0  0  0  0  0  0  0
   17.0027  -12.9663    0.0000 C   0  0  0  0  0  0  0  0  0  0  0  0
   10.0983  -12.8426    0.0000 C   0  0  0  0  0  0  0  0  0  0  0  0
   17.4159  -13.6851    0.0000 C   0  0  0  0  0  0  0  0  0  0  0  0
   17.4090  -15.1160    0.0000 O   0  0  0  0  0  0  0  0  0  0  0  0
   18.2412  -13.6885    0.0000 O   0  0  0  0  0  0  0  0  0  0  0  0
   18.2344  -15.1194    0.0000 C   0  0  0  0  0  0  0  0  0  0  0  0
   18.6498  -14.4040    0.0000 C   0  0  0  0  0  0  0  0  0  0  0  0
  1  2  1  0  0  0  0
  1  3  1  0  0  0  0
  1  4  1  0  0  0  0
  1  5  1  6  0  0  0
  2  6  1  0  0  0  0
  2  7  2  0  0  0  0
  3  8  1  0  0  0  0
  3  9  1  6  0  0  0
  4 10  2  0  0  0  0
  5 11  1  0  0  0  0
  7 12  1  0  0  0  0
  8 13  1  1  0  0  0
 10 14  1  0  0  0  0
 12 15  2  0  0  0  0
 13 16  2  0  0  0  0
 13 17  1  0  0  0  0
 14 18  1  0  0  0  0
 16 19  1  0  0  0  0
 17 20  2  0  0  0  0
 18 21  2  0  0  0  0
 19 22  2  0  0  0  0
 19 23  1  0  0  0  0
 22 24  1  0  0  0  0
 23 25  1  0  0  0  0
 24 26  1  0  0  0  0
  6  8  1  0  0  0  0
 10 12  1  0  0  0  0
 20 22  1  0  0  0  0
M  END

>  <ACTIVITY>
5.00
$$$$
4982
 
  Mrv0541 05041708522D          
 
 29 31  0  0  1  0            999 V2000
   14.6245   -8.7099    0.0000 C   0  0  1  0  0  0  0  0  0  0  0  0
   15.3404   -8.2902    0.0000 C   0  0  1  0  0  0  0  0  0  0  0  0
   13.8501   -8.4140    0.0000 C   0  0  1  0  0  0  0  0  0  0  0  0
   14.6176   -9.5291    0.0000 O   0  0  0  0  0  0  0  0  0  0  0  0
   15.4540   -7.4641    0.0000 C   0  0  1  0  0  0  0  0  0  0  0  0
   16.0942   -8.6515    0.0000 C   0  0  1  0  0  0  0  0  0  0  0  0
   13.5989   -7.6258    0.0000 C   0  0  2  0  0  0  0  0  0  0  0  0
   13.1824   -8.8959    0.0000 C   0  0  0  0  0  0  0  0  0  0  0  0
   13.8398   -9.2331    0.0000 C   0  0  0  0  0  0  0  0  0  0  0  0
   15.0307  -10.2416    0.0000 C   0  0  0  0  0  0  0  0  0  0  0  0
   14.8827   -6.8583    0.0000 C   0  0  1  0  0  0  0  0  0  0  0  0
   16.2731   -7.3126    0.0000 O   0  0  0  0  0  0  0  0  0  0  0  0
   16.6689   -8.0457    0.0000 C   0  0  0  0  0  0  0  0  0  0  0  0
   16.2422   -9.4603    0.0000 C   0  0  0  0  0  0  0  0  0  0  0  0
   14.0601   -6.9340    0.0000 C   0  0  1  0  0  0  0  0  0  0  0  0
   12.7728   -7.6258    0.0000 C   0  0  0  0  0  0  0  0  0  0  0  0
   12.5181   -8.4105    0.0000 C   0  0  0  0  0  0  0  0  0  0  0  0
   13.1824   -9.7184    0.0000 O   0  0  0  0  0  0  0  0  0  0  0  0
   14.6210  -10.9506    0.0000 C   0  0  0  0  0  0  0  0  0  0  0  0
   15.8532  -10.2381    0.0000 O   0  0  0  0  0  0  0  0  0  0  0  0
   15.1752   -6.0908    0.0000 O   0  0  0  0  0  0  0  0  0  0  0  0
   17.4880   -8.0733    0.0000 O   0  0  0  0  0  0  0  0  0  0  0  0
   13.6367   -6.2284    0.0000 C   0  0  0  0  0  0  0  0  0  0  0  0
   15.0341  -11.6630    0.0000 C   0  0  0  0  0  0  0  0  0  0  0  0
   14.6280  -12.3755    0.0000 C   0  0  0  0  0  0  0  0  0  0  0  0
   15.8567  -11.6630    0.0000 C   0  0  0  0  0  0  0  0  0  0  0  0
   15.3335   -9.1092    0.0000 H   0  0  0  0  0  0  0  0  0  0  0  0
   15.6639   -6.6587    0.0000 H   0  0  0  0  0  0  0  0  0  0  0  0
   13.0103   -7.0373    0.0000 H   0  0  0  0  0  0  0  0  0  0  0  0
  1  2  1  0  0  0  0
  1  3  1  0  0  0  0
  1  4  1  6  0  0  0
  2  5  1  0  0  0  0
  2  6  1  0  0  0  0
  3  7  1  0  0  0  0
  3  8  1  0  0  0  0
  3  9  1  1  0  0  0
  4 10  1  0  0  0  0
  5 11  1  0  0  0  0
  5 12  1  0  0  0  0
  6 13  1  0  0  0  0
  6 14  1  1  0  0  0
  7 15  1  0  0  0  0
  7 16  1  0  0  0  0
  8 17  1  0  0  0  0
  8 18  2  0  0  0  0
 10 19  1  0  0  0  0
 10 20  2  0  0  0  0
 11 21  1  1  0  0  0
 13 22  2  0  0  0  0
 15 23  1  6  0  0  0
 19 24  2  0  0  0  0
 24 25  1  0  0  0  0
 24 26  1  0  0  0  0
 11 15  1  0  0  0  0
 12 13  1  0  0  0  0
 16 17  2  0  0  0  0
  2 27  1  6  0  0  0
  5 28  1  6  0  0  0
  7 29  1  6  0  0  0
M  END

>  <ACTIVITY>
5.00
$$$$
5069

  Mrv0541 05041708522D          

 56 62  0  0  0  0            999 V2000
    2.1659  -12.2767    0.0000 C   0  0  1  0  0  0  0  0  0  0  0  0
    2.1460  -13.1045    0.0000 C   0  0  2  0  0  0  0  0  0  0  0  0
    1.4577  -11.8456    0.0000 O   0  0  0  0  0  0  0  0  0  0  0  0
    2.8543  -13.5356    0.0000 O   0  0  0  0  0  0  0  0  0  0  0  0
    1.4207  -13.5028    0.0000 C   0  0  0  0  0  0  0  0  0  0  0  0
    0.7324  -12.2439    0.0000 C   0  0  0  0  0  0  0  0  0  0  0  0
    2.8361  -14.3602    0.0000 C   0  0  2  0  0  0  0  0  0  0  0  0
    0.7124  -13.0715    0.0000 C   0  0  1  0  0  0  0  0  0  0  0  0
    1.4038  -14.3322    0.0000 O   0  0  0  0  0  0  0  0  0  0  0  0
    2.1039  -14.7504    0.0000 O   0  0  0  0  0  0  0  0  0  0  0  0
    3.5313  -14.7996    0.0000 C   0  0  1  0  0  0  0  0  0  0  0  0
   -0.0099  -13.4717    0.0000 O   0  0  0  0  0  0  0  0  0  0  0  0
    2.0716  -15.5784    0.0000 C   0  0  1  0  0  0  0  0  0  0  0  0
    3.5073  -15.6208    0.0000 C   0  0  2  0  0  0  0  0  0  0  0  0
    4.2637  -14.4095    0.0000 O   0  0  0  0  0  0  0  0  0  0  0  0
    2.7780  -16.0125    0.0000 C   0  0  2  0  0  0  0  0  0  0  0  0
    1.3440  -15.9673    0.0000 C   0  0  0  0  0  0  0  0  0  0  0  0
    4.2066  -16.0665    0.0000 O   0  0  0  0  0  0  0  0  0  0  0  0
    2.7486  -16.8425    0.0000 O   0  0  0  0  0  0  0  0  0  0  0  0
    6.5466  -10.8333    0.0000 C   0  0  1  0  0  0  0  0  0  0  0  0
    7.2623  -10.4274    0.0000 C   0  0  1  0  0  0  0  0  0  0  0  0
    5.8344  -10.4171    0.0000 C   0  0  1  0  0  0  0  0  0  0  0  0
    6.5466  -11.6591    0.0000 C   0  0  0  0  0  0  0  0  0  0  0  0
    6.5398  -10.0042    0.0000 C   0  0  0  0  0  0  0  0  0  0  0  0
    7.2726   -9.6051    0.0000 C   0  0  0  0  0  0  0  0  0  0  0  0
    7.9711  -10.8437    0.0000 C   0  0  0  0  0  0  0  0  0  0  0  0
    7.2555  -11.2497    0.0000 C   0  0  0  0  0  0  0  0  0  0  0  0
    5.1153  -10.8266    0.0000 C   0  0  2  0  0  0  0  0  0  0  0  0
    5.8413   -9.5948    0.0000 C   0  0  0  0  0  0  0  0  0  0  0  0
    5.8276  -12.0720    0.0000 C   0  0  0  0  0  0  0  0  0  0  0  0
    7.9917   -9.1991    0.0000 C   0  0  1  0  0  0  0  0  0  0  0  0
    6.5604   -9.1853    0.0000 C   0  0  0  0  0  0  0  0  0  0  0  0
    8.6833  -10.4446    0.0000 C   0  0  0  0  0  0  0  0  0  0  0  0
    5.1120  -11.6557    0.0000 C   0  0  1  0  0  0  0  0  0  0  0  0
    4.4031  -10.4137    0.0000 C   0  0  0  0  0  0  0  0  0  0  0  0
    5.1085  -10.0008    0.0000 C   0  0  0  0  0  0  0  0  0  0  0  0
    8.6935   -9.6224    0.0000 C   0  0  1  0  0  0  0  0  0  0  0  0
    8.0020   -8.3768    0.0000 C   0  0  0  0  0  0  0  0  0  0  0  0
    4.4031  -12.0686    0.0000 C   0  0  0  0  0  0  0  0  0  0  0  0
    3.6842  -10.8266    0.0000 C   0  0  0  0  0  0  0  0  0  0  0  0
    9.4092   -9.2198    0.0000 C   0  0  0  0  0  0  0  0  0  0  0  0
    9.4023  -10.0317    0.0000 C   0  0  0  0  0  0  0  0  0  0  0  0
    8.7142   -7.9777    0.0000 C   0  0  0  0  0  0  0  0  0  0  0  0
    3.6842  -11.6557    0.0000 C   0  0  2  0  0  0  0  0  0  0  0  0
    3.9835  -12.7842    0.0000 C   0  0  0  0  0  0  0  0  0  0  0  0
    9.4230   -8.3975    0.0000 C   0  0  0  0  0  0  0  0  0  0  0  0
   10.1179   -9.6155    0.0000 O   0  0  0  0  0  0  0  0  0  0  0  0
    9.3989  -10.8609    0.0000 O   0  0  0  0  0  0  0  0  0  0  0  0
    9.1237   -7.2655    0.0000 C   0  0  0  0  0  0  0  0  0  0  0  0
    8.2979   -7.2655    0.0000 C   0  0  0  0  0  0  0  0  0  0  0  0
    2.9651  -12.0686    0.0000 O   0  0  0  0  0  0  0  0  0  0  0  0
    5.8276  -11.2359    0.0000 H   0  0  0  0  0  0  0  0  0  0  0  0
    7.9813  -10.0215    0.0000 H   0  0  0  0  0  0  0  0  0  0  0  0
    5.1051  -12.4746    0.0000 H   0  0  0  0  0  0  0  0  0  0  0  0
    4.6147  -12.8587    0.0000 C   0  0  0  0  0  0  0  0  0  0  0  0
    0.6450  -15.5326    0.0000 O   0  0  0  0  0  0  0  0  0  0  0  0
 11 15  1  6  0  0  0
 13 16  1  0  0  0  0
 13 17  1  1  0  0  0
 14 18  1  1  0  0  0
 16 19  1  6  0  0  0
  6  8  1  0  0  0  0
 14 16  1  0  0  0  0
  1  2  1  0  0  0  0
  1  3  1  0  0  0  0
  2  4  1  6  0  0  0
  2  5  1  0  0  0  0
  3  6  1  0  0  0  0
  7  4  1  1  0  0  0
  5  8  1  0  0  0  0
  5  9  2  0  0  0  0
  7 10  1  0  0  0  0
  7 11  1  0  0  0  0
  8 12  1  6  0  0  0
 10 13  1  0  0  0  0
 20 21  1  0  0  0  0
 20 22  1  0  0  0  0
 20 23  1  0  0  0  0
 20 24  1  1  0  0  0
 21 25  1  0  0  0  0
 21 26  1  0  0  0  0
 21 27  1  6  0  0  0
 22 28  1  0  0  0  0
 22 29  1  0  0  0  0
 23 30  1  0  0  0  0
 25 31  1  0  0  0  0
 25 32  2  0  0  0  0
 26 33  1  0  0  0  0
 28 34  1  0  0  0  0
 28 35  1  0  0  0  0
 28 36  1  1  0  0  0
 31 37  1  0  0  0  0
 31 38  1  0  0  0  0
 34 39  1  0  0  0  0
 35 40  1  0  0  0  0
 37 41  1  0  0  0  0
 37 42  1  1  0  0  0
 38 43  1  0  0  0  0
 39 44  1  0  0  0  0
 39 45  1  0  0  0  0
 41 46  1  0  0  0  0
 42 47  1  0  0  0  0
 42 48  2  0  0  0  0
 43 49  1  0  0  0  0
 43 50  1  0  0  0  0
 44 51  1  1  0  0  0
 29 32  1  0  0  0  0
 30 34  1  0  0  0  0
 33 37  1  0  0  0  0
 40 44  1  0  0  0  0
 43 46  1  0  0  0  0
 22 52  1  6  0  0  0
 31 53  1  1  0  0  0
 34 54  1  6  0  0  0
  1 51  1  1  0  0  0
 11 14  1  0  0  0  0
 39 55  1  0  0  0  0
 17 56  1  0  0  0  0
M  END

>  <ACTIVITY>
5.00
$$$$
5168
 
  Mrv0541 05041708522D          
 
 29 32  0  0  1  0            999 V2000
   16.5232  -10.7549    0.0000 C   0  0  0  0  0  0  0  0  0  0  0  0
   16.4854   -9.9287    0.0000 C   0  0  0  0  0  0  0  0  0  0  0  0
   17.1951  -11.1698    0.0000 C   0  0  0  0  0  0  0  0  0  0  0  0
   15.7724  -11.1663    0.0000 C   0  0  0  0  0  0  0  0  0  0  0  0
   17.2020   -9.5207    0.0000 C   0  0  0  0  0  0  0  0  0  0  0  0
   15.7724   -9.5173    0.0000 C   0  0  0  0  0  0  0  0  0  0  0  0
   17.9082  -10.7583    0.0000 C   0  0  0  0  0  0  0  0  0  0  0  0
   17.1917  -11.9960    0.0000 O   0  0  0  0  0  0  0  0  0  0  0  0
   15.0558  -10.7549    0.0000 C   0  0  0  0  0  0  0  0  0  0  0  0
   17.9151   -9.9356    0.0000 C   0  0  0  0  0  0  0  0  0  0  0  0
   17.2053   -8.6979    0.0000 O   0  0  0  0  0  0  0  0  0  0  0  0
   15.0558   -9.9287    0.0000 C   0  0  0  0  0  0  0  0  0  0  0  0
   15.7757   -8.6945    0.0000 O   0  0  0  0  0  0  0  0  0  0  0  0
   18.6144  -11.1766    0.0000 C   0  0  0  0  0  0  0  0  0  0  0  0
   14.3427  -11.1663    0.0000 O   0  0  0  0  0  0  0  0  0  0  0  0
   18.6315   -9.5310    0.0000 C   0  0  0  0  0  0  0  0  0  0  0  0
   19.3275  -10.7686    0.0000 C   0  0  0  0  0  0  0  0  0  0  0  0
   13.6296  -10.7515    0.0000 C   0  0  2  0  0  0  0  0  0  0  0  0
   19.3344   -9.9493    0.0000 C   0  0  0  0  0  0  0  0  0  0  0  0
   18.6384   -8.7082    0.0000 O   0  0  0  0  0  0  0  0  0  0  0  0
   20.0372  -11.1903    0.0000 C   0  0  0  0  0  0  0  0  0  0  0  0
   13.5452   -9.9217    0.0000 O   0  0  0  0  0  0  0  0  0  0  0  0
   12.7300   -9.7456    0.0000 C   0  0  0  0  0  0  0  0  0  0  0  0
   12.3106  -10.4665    0.0000 C   0  0  2  0  0  0  0  0  0  0  0  0
   12.8666  -11.0882    0.0000 C   0  0  1  0  0  0  0  0  0  0  0  0
   12.6973  -11.8727    0.0000 O   0  0  0  0  0  0  0  0  0  0  0  0
   11.7286  -11.0485    0.0000 O   0  0  0  0  0  0  0  0  0  0  0  0
   11.6485   -9.9568    0.0000 C   0  0  0  0  0  0  0  0  0  0  0  0
   10.8851  -10.2716    0.0000 O   0  0  0  0  0  0  0  0  0  0  0  0
  1  2  2  0  0  0  0
  1  3  1  0  0  0  0
  1  4  1  0  0  0  0
  2  5  1  0  0  0  0
  2  6  1  0  0  0  0
  3  7  1  0  0  0  0
  3  8  2  0  0  0  0
  4  9  2  0  0  0  0
  5 10  1  0  0  0  0
  5 11  2  0  0  0  0
  6 12  2  0  0  0  0
  6 13  1  0  0  0  0
  7 14  1  0  0  0  0
  9 15  1  0  0  0  0
 10 16  1  0  0  0  0
 14 17  2  0  0  0  0
 18 15  1  1  0  0  0
 16 19  2  0  0  0  0
 16 20  1  0  0  0  0
 17 21  1  0  0  0  0
  7 10  2  0  0  0  0
  9 12  1  0  0  0  0
 17 19  1  0  0  0  0
 18 22  1  0  0  0  0
 22 23  1  0  0  0  0
 23 24  1  0  0  0  0
 24 25  1  0  0  0  0
 18 25  1  0  0  0  0
 25 26  1  6  0  0  0
 24 27  1  6  0  0  0
 24 28  1  1  0  0  0
 28 29  1  0  0  0  0
M  END

>  <ACTIVITY>
5.00
$$$$
5180

  Mrv0541 05041708522D          

 35 40  0  0  0  0            999 V2000
   10.1881   -6.1171    0.0000 C   0  0  0  0  0  0  0  0  0  0  0  0
    9.3975   -6.3715    0.0000 C   0  0  0  0  0  0  0  0  0  0  0  0
   10.1881   -5.2887    0.0000 C   0  0  0  0  0  0  0  0  0  0  0  0
   10.9030   -6.5331    0.0000 C   0  0  0  0  0  0  0  0  0  0  0  0
    8.9162   -5.7046    0.0000 C   0  0  0  0  0  0  0  0  0  0  0  0
    9.0606   -7.1243    0.0000 C   0  0  0  0  0  0  0  0  0  0  0  0
    9.4009   -5.0309    0.0000 O   0  0  0  0  0  0  0  0  0  0  0  0
   10.9030   -4.8797    0.0000 C   0  0  0  0  0  0  0  0  0  0  0  0
   11.6145   -6.1171    0.0000 C   0  0  0  0  0  0  0  0  0  0  0  0
   10.9065   -7.3580    0.0000 O   0  0  0  0  0  0  0  0  0  0  0  0
    8.0982   -5.7871    0.0000 C   0  0  0  0  0  0  0  0  0  0  0  0
    8.2426   -7.2067    0.0000 C   0  0  0  0  0  0  0  0  0  0  0  0
    9.5418   -7.7910    0.0000 O   0  0  0  0  0  0  0  0  0  0  0  0
   11.6180   -5.2887    0.0000 C   0  0  0  0  0  0  0  0  0  0  0  0
   12.3296   -6.5331    0.0000 O   0  0  0  0  0  0  0  0  0  0  0  0
    7.7578   -6.5399    0.0000 C   0  0  0  0  0  0  0  0  0  0  0  0
   12.3364   -4.8831    0.0000 O   0  0  0  0  0  0  0  0  0  0  0  0
   13.0445   -6.1206    0.0000 C   0  0  0  0  0  0  0  0  0  0  0  0
    6.9364   -6.6224    0.0000 O   0  0  0  0  0  0  0  0  0  0  0  0
   13.0513   -5.2956    0.0000 C   0  0  0  0  0  0  0  0  0  0  0  0
   13.7491   -6.5399    0.0000 C   0  0  0  0  0  0  0  0  0  0  0  0
   13.7663   -4.8934    0.0000 C   0  0  0  0  0  0  0  0  0  0  0  0
   13.7422   -7.3683    0.0000 O   0  0  0  0  0  0  0  0  0  0  0  0
   14.4675   -6.1343    0.0000 C   0  0  0  0  0  0  0  0  0  0  0  0
   14.4744   -5.3094    0.0000 C   0  0  0  0  0  0  0  0  0  0  0  0
   13.7731   -4.0650    0.0000 O   0  0  0  0  0  0  0  0  0  0  0  0
   14.4503   -7.7808    0.0000 C   0  0  0  0  0  0  0  0  0  0  0  0
   15.1824   -6.5537    0.0000 O   0  0  0  0  0  0  0  0  0  0  0  0
   14.4469   -8.6091    0.0000 C   0  0  0  0  0  0  0  0  0  0  0  0
   15.1687   -7.3752    0.0000 C   0  0  0  0  0  0  0  0  0  0  0  0
   15.1618   -9.0285    0.0000 C   0  0  0  0  0  0  0  0  0  0  0  0
   15.8837   -7.7876    0.0000 C   0  0  0  0  0  0  0  0  0  0  0  0
   15.8802   -8.6160    0.0000 C   0  0  0  0  0  0  0  0  0  0  0  0
   15.1579   -9.8509    0.0000 O   0  0  0  0  0  0  0  0  0  0  0  0
   16.5966   -7.3779    0.0000 O   0  0  0  0  0  0  0  0  0  0  0  0
  1  3  1  0  0  0  0
  1  4  2  0  0  0  0
  2  5  2  0  0  0  0
  2  6  1  0  0  0  0
  3  7  1  0  0  0  0
  3  8  2  0  0  0  0
  4  9  1  0  0  0  0
  4 10  1  0  0  0  0
  5 11  1  0  0  0  0
  6 12  2  0  0  0  0
  6 13  1  0  0  0  0
  8 14  1  0  0  0  0
  9 15  1  0  0  0  0
 11 16  2  0  0  0  0
 14 17  1  0  0  0  0
 15 18  1  0  0  0  0
 16 19  1  0  0  0  0
 17 20  1  0  0  0  0
 18 21  2  0  0  0  0
 20 22  2  0  0  0  0
 21 23  1  0  0  0  0
 21 24  1  0  0  0  0
 22 25  1  0  0  0  0
 22 26  1  0  0  0  0
 23 27  1  0  0  0  0
 24 28  1  0  0  0  0
 27 29  2  0  0  0  0
 27 30  1  0  0  0  0
 29 31  1  0  0  0  0
 30 32  2  0  0  0  0
 31 33  2  0  0  0  0
  5  7  1  0  0  0  0
  9 14  2  0  0  0  0
 12 16  1  0  0  0  0
 18 20  1  0  0  0  0
 24 25  2  0  0  0  0
 32 33  1  0  0  0  0
 31 34  1  0  0  0  0
  1  2  1  0  0  0  0
 32 35  1  0  0  0  0
M  END

>  <ACTIVITY>
5.00
$$$$
5356

  Mrv0541 05041708522D          

 36 41  0  0  0  0            999 V2000
   -0.0241   -0.3173    0.0000 C   0  0  0  0  0  0  0  0  0  0  0  0
   -0.6864   -0.8002    0.0000 C   0  0  2  0  0  0  0  0  0  0  0  0
    0.5208    0.2863    0.0000 C   0  0  0  0  0  0  0  0  0  0  0  0
    0.3829   -1.0279    0.0000 C   0  0  1  0  0  0  0  0  0  0  0  0
   -0.2725    0.4760    0.0000 C   0  0  0  0  0  0  0  0  0  0  0  0
   -1.3589   -0.3139    0.0000 C   0  0  2  0  0  0  0  0  0  0  0  0
    0.5760   -0.3311    0.0000 O   0  0  0  0  0  0  0  0  0  0  0  0
   -0.6830   -1.6245    0.0000 C   0  0  0  0  0  0  0  0  0  0  0  0
    1.3417    0.2863    0.0000 C   0  0  2  0  0  0  0  0  0  0  0  0
    1.2693   -0.0448    0.0000 C   0  0  1  0  0  0  0  0  0  0  0  0
    0.2691    1.0658    0.0000 C   0  0  0  0  0  0  0  0  0  0  0  0
    1.1831   -0.8588    0.0000 C   0  0  0  0  0  0  0  0  0  0  0  0
    0.0448   -1.7797    0.0000 O   0  0  0  0  0  0  0  0  0  0  0  0
   -1.1038    0.4760    0.0000 C   0  0  1  0  0  0  0  0  0  0  0  0
   -0.4415   -0.0897    0.0000 O   0  0  0  0  0  0  0  0  0  0  0  0
   -2.1867   -0.3139    0.0000 C   0  0  1  0  0  0  0  0  0  0  0  0
   -1.5763   -1.1106    0.0000 O   0  0  0  0  0  0  0  0  0  0  0  0
   -1.3244   -2.1453    0.0000 O   0  0  0  0  0  0  0  0  0  0  0  0
    1.5970    1.0693    0.0000 O   0  0  0  0  0  0  0  0  0  0  0  0
    2.0626    0.1724    0.0000 C   0  0  0  0  0  0  0  0  0  0  0  0
    0.9312    1.5487    0.0000 C   0  0  0  0  0  0  0  0  0  0  0  0
    0.2622    1.8936    0.0000 O   0  0  0  0  0  0  0  0  0  0  0  0
   -1.7763    0.9657    0.0000 O   0  0  0  0  0  0  0  0  0  0  0  0
   -2.4489    0.4760    0.0000 C   0  0  0  0  0  0  0  0  0  0  0  0
   -2.4075   -1.1106    0.0000 C   0  0  0  0  0  0  0  0  0  0  0  0
    2.5109   -0.5208    0.0000 C   0  0  0  0  0  0  0  0  0  0  0  0
    2.7628    0.6105    0.0000 C   0  0  0  0  0  0  0  0  0  0  0  0
    2.8731   -0.0379    0.0000 C   0  0  0  0  0  0  0  0  0  0  0  0
    0.9312    2.3765    0.0000 O   0  0  0  0  0  0  0  0  0  0  0  0
   -3.2353    0.7278    0.0000 O   0  0  0  0  0  0  0  0  0  0  0  0
    0.7864   -1.7349    0.0000 H   0  0  0  0  0  0  0  0  0  0  0  0
   -0.2967    1.3072    0.0000 H   0  0  0  0  0  0  0  0  0  0  0  0
    1.9798   -0.4553    0.0000 H   0  0  0  0  0  0  0  0  0  0  0  0
    0.8830    0.8933    0.0000 H   0  0  0  0  0  0  0  0  0  0  0  0
   -1.1072    1.3038    0.0000 H   0  0  0  0  0  0  0  0  0  0  0  0
   -3.0180   -0.3139    0.0000 H   0  0  0  0  0  0  0  0  0  0  0  0
  1  2  1  0  0  0  0
  1  3  1  0  0  0  0
  1  4  1  0  0  0  0
  1  5  1  0  0  0  0
  2  6  1  0  0  0  0
  2  7  1  1  0  0  0
  2  8  1  0  0  0  0
  3  9  1  0  0  0  0
  3 10  1  0  0  0  0
  3 11  1  0  0  0  0
  4 12  1  0  0  0  0
  4 13  1  0  0  0  0
  5 14  1  0  0  0  0
  5 15  1  6  0  0  0
  6 16  1  0  0  0  0
  6 17  1  6  0  0  0
  8 18  2  0  0  0  0
  9 19  1  0  0  0  0
 10 20  1  6  0  0  0
 11 21  1  0  0  0  0
 11 22  1  1  0  0  0
 14 23  1  0  0  0  0
 16 24  1  0  0  0  0
 16 25  1  6  0  0  0
 20 26  1  0  0  0  0
 20 27  1  0  0  0  0
 20 28  1  0  0  0  0
 21 29  2  0  0  0  0
 24 30  2  0  0  0  0
  6 14  1  0  0  0  0
  9  7  1  1  0  0  0
  8 13  1  0  0  0  0
 10 12  1  0  0  0  0
 19 21  1  0  0  0  0
 23 24  1  0  0  0  0
  4 31  1  6  0  0  0
  5 32  1  1  0  0  0
 10 33  1  1  0  0  0
 11 34  1  6  0  0  0
 14 35  1  6  0  0  0
 16 36  1  1  0  0  0
M  END

>  <ACTIVITY>
5.00
$$$$
5375
 
  Mrv0541 05041708522D          
 
 33 35  0  0  1  0            999 V2000
   16.1746   -6.7073    0.0000 O   0  0  0  0  0  0  0  0  0  0  0  0
   16.9954   -6.7073    0.0000 C   0  0  0  0  0  0  0  0  0  0  0  0
   17.4058   -7.4181    0.0000 O   0  0  0  0  0  0  0  0  0  0  0  0
   17.4058   -5.9964    0.0000 C   0  0  0  0  0  0  0  0  0  0  0  0
   13.7755   -9.3461    0.0000 C   0  0  1  0  0  0  0  0  0  0  0  0
   14.6036   -9.3411    0.0000 C   0  0  0  0  0  0  0  0  0  0  0  0
   13.2562   -8.7012    0.0000 C   0  0  2  0  0  0  0  0  0  0  0  0
   13.5206  -10.1350    0.0000 O   0  0  0  0  0  0  0  0  0  0  0  0
   15.1170   -8.6987    0.0000 C   0  0  2  0  0  0  0  0  0  0  0  0
   14.8605  -10.1288    0.0000 C   0  0  0  0  0  0  0  0  0  0  0  0
   13.4399   -7.8927    0.0000 C   0  0  2  0  0  0  0  0  0  0  0  0
   12.6503   -8.1456    0.0000 O   0  0  0  0  0  0  0  0  0  0  0  0
   14.1943  -10.6207    0.0000 C   0  0  0  0  0  0  0  0  0  0  0  0
   14.9284   -7.8950    0.0000 C   0  0  0  0  0  0  0  0  0  0  0  0
   15.8897   -9.2156    0.0000 O   0  0  0  0  0  0  0  0  0  0  0  0
   15.5690  -10.5313    0.0000 C   0  0  0  0  0  0  0  0  0  0  0  0
   14.1861   -7.5345    0.0000 C   0  0  0  0  0  0  0  0  0  0  0  0
   12.9569   -7.2334    0.0000 C   0  0  0  0  0  0  0  0  0  0  0  0
   14.1982  -11.4386    0.0000 O   0  0  0  0  0  0  0  0  0  0  0  0
   15.4988   -7.2980    0.0000 C   0  0  2  0  0  0  0  0  0  0  0  0
   16.5840   -8.7957    0.0000 C   0  0  0  0  0  0  0  0  0  0  0  0
   15.5708  -11.3429    0.0000 O   0  0  0  0  0  0  0  0  0  0  0  0
   14.2996   -6.7170    0.0000 C   0  0  0  0  0  0  0  0  0  0  0  0
   15.1118   -6.5723    0.0000 C   0  0  0  0  0  0  0  0  0  0  0  0
   16.1932   -7.2725    0.0000 C   0  0  0  0  0  0  0  0  0  0  0  0
   17.2994   -9.1852    0.0000 C   0  0  0  0  0  0  0  0  0  0  0  0
   16.6076   -8.0206    0.0000 O   0  0  0  0  0  0  0  0  0  0  0  0
   16.2792  -11.7454    0.0000 C   0  0  0  0  0  0  0  0  0  0  0  0
   15.4662   -5.8377    0.0000 O   0  0  0  0  0  0  0  0  0  0  0  0
   16.2815  -12.5645    0.0000 C   0  0  0  0  0  0  0  0  0  0  0  0
   16.9860  -11.3366    0.0000 O   0  0  0  0  0  0  0  0  0  0  0  0
   12.4991   -8.9951    0.0000 H   0  0  0  0  0  0  0  0  0  0  0  0
   13.9866   -8.5484    0.0000 H   0  0  0  0  0  0  0  0  0  0  0  0
  2  4  1  0  0  0  0
  2  3  2  0  0  0  0
  5  6  1  0  0  0  0
  5  7  1  0  0  0  0
  5  8  1  0  0  0  0
  6  9  1  0  0  0  0
  6 10  2  0  0  0  0
  7 11  1  0  0  0  0
  7 12  1  0  0  0  0
  8 13  1  0  0  0  0
  9 14  1  0  0  0  0
  9 15  1  6  0  0  0
 10 16  1  0  0  0  0
 11 17  1  0  0  0  0
 11 18  1  1  0  0  0
 13 19  2  0  0  0  0
 14 20  1  0  0  0  0
 15 21  1  0  0  0  0
 16 22  1  0  0  0  0
 17 23  1  0  0  0  0
 20 24  1  0  0  0  0
 20  1  1  6  0  0  0
 20 25  1  1  0  0  0
 21 26  1  0  0  0  0
 21 27  2  0  0  0  0
 22 28  1  0  0  0  0
 24 29  2  0  0  0  0
 28 30  1  0  0  0  0
 28 31  2  0  0  0  0
 10 13  1  0  0  0  0
 11 12  1  0  0  0  0
 23 24  1  0  0  0  0
  7 32  1  6  0  0  0
  1  2  1  0  0  0  0
  5 33  1  1  0  0  0
M  END

>  <ACTIVITY>
5.00
$$$$
5833

  Mrv0541 05041708522D          

 39 41  0  0  1  0            999 V2000
    6.6687   -5.6761    0.0000 C   0  0  0  0  0  0  0  0  0  0  0  0
    7.3836   -5.2601    0.0000 C   0  0  0  0  0  0  0  0  0  0  0  0
    5.9571   -5.2636    0.0000 C   0  0  0  0  0  0  0  0  0  0  0  0
    7.0879   -6.3842    0.0000 C   0  0  0  0  0  0  0  0  0  0  0  0
    6.2630   -6.3842    0.0000 C   0  0  0  0  0  0  0  0  0  0  0  0
    7.3802   -4.4317    0.0000 C   0  0  0  0  0  0  0  0  0  0  0  0
    8.1020   -5.6657    0.0000 O   0  0  0  0  0  0  0  0  0  0  0  0
    5.9467   -4.4420    0.0000 C   0  0  0  0  0  0  0  0  0  0  0  0
    5.2455   -5.6795    0.0000 O   0  0  0  0  0  0  0  0  0  0  0  0
    7.9164   -6.3842    0.0000 C   0  0  0  0  0  0  0  0  0  0  0  0
    5.4345   -6.3842    0.0000 C   0  0  0  0  0  0  0  0  0  0  0  0
    6.6618   -4.0226    0.0000 C   0  0  0  0  0  0  0  0  0  0  0  0
    8.0952   -4.0226    0.0000 C   0  0  0  0  0  0  0  0  0  0  0  0
    5.2283   -4.0330    0.0000 C   0  0  0  0  0  0  0  0  0  0  0  0
    8.3323   -7.0992    0.0000 C   0  0  0  0  0  0  0  0  0  0  0  0
    5.0255   -7.0992    0.0000 C   0  0  0  0  0  0  0  0  0  0  0  0
    6.6583   -3.1942    0.0000 O   0  0  0  0  0  0  0  0  0  0  0  0
    8.7998   -4.4386    0.0000 C   0  0  0  0  0  0  0  0  0  0  0  0
    8.0952   -3.1942    0.0000 O   0  0  0  0  0  0  0  0  0  0  0  0
    4.4343   -4.2461    0.0000 C   0  0  2  0  0  0  0  0  0  0  0  0
    9.1539   -7.0992    0.0000 C   0  0  0  0  0  0  0  0  0  0  0  0
    7.9164   -7.8175    0.0000 C   0  0  0  0  0  0  0  0  0  0  0  0
    4.2039   -7.0992    0.0000 C   0  0  0  0  0  0  0  0  0  0  0  0
    5.4345   -7.8175    0.0000 C   0  0  0  0  0  0  0  0  0  0  0  0
    8.7998   -5.2636    0.0000 C   0  0  0  0  0  0  0  0  0  0  0  0
    9.5148   -4.0226    0.0000 C   0  0  0  0  0  0  0  0  0  0  0  0
    3.6488   -3.9945    0.0000 C   0  0  2  0  0  0  0  0  0  0  0  0
    4.4377   -5.0711    0.0000 C   0  0  1  0  0  0  0  0  0  0  0  0
    9.5148   -5.6761    0.0000 C   0  0  0  0  0  0  0  0  0  0  0  0
   10.2332   -4.4386    0.0000 C   0  0  0  0  0  0  0  0  0  0  0  0
    3.1728   -4.6620    0.0000 C   0  0  0  0  0  0  0  0  0  0  0  0
    3.2389   -3.2795    0.0000 C   0  0  0  0  0  0  0  0  0  0  0  0
    3.6575   -5.3254    0.0000 C   0  0  0  0  0  0  0  0  0  0  0  0
    5.2421   -4.8476    0.0000 C   0  0  0  0  0  0  0  0  0  0  0  0
    4.4446   -5.8961    0.0000 O   0  0  0  0  0  0  0  0  0  0  0  0
   10.2332   -5.2636    0.0000 C   0  0  0  0  0  0  0  0  0  0  0  0
    3.6543   -2.5627    0.0000 C   0  0  0  0  0  0  0  0  0  0  0  0
    2.4151   -3.2783    0.0000 C   0  0  0  0  0  0  0  0  0  0  0  0
    4.4446   -3.4211    0.0000 H   0  0  0  0  0  0  0  0  0  0  0  0
  1  2  1  0  0  0  0
  1  3  1  0  0  0  0
  1  4  1  0  0  0  0
  1  5  1  0  0  0  0
  2  6  1  0  0  0  0
  2  7  2  0  0  0  0
  3  8  2  0  0  0  0
  3  9  1  0  0  0  0
  4 10  1  0  0  0  0
  5 11  1  0  0  0  0
  6 12  2  0  0  0  0
  6 13  1  0  0  0  0
  8 14  1  0  0  0  0
 10 15  2  0  0  0  0
 11 16  2  0  0  0  0
 12 17  1  0  0  0  0
 13 18  1  0  0  0  0
 13 19  2  0  0  0  0
 14 20  1  0  0  0  0
 15 21  1  0  0  0  0
 15 22  1  0  0  0  0
 16 23  1  0  0  0  0
 16 24  1  0  0  0  0
 18 25  2  0  0  0  0
 18 26  1  0  0  0  0
 20 27  1  0  0  0  0
 20 28  1  0  0  0  0
 25 29  1  0  0  0  0
 26 30  2  0  0  0  0
 27 31  1  0  0  0  0
 27 32  1  6  0  0  0
 28 33  1  0  0  0  0
 28 34  1  6  0  0  0
 28 35  1  1  0  0  0
 29 36  2  0  0  0  0
 32 37  1  0  0  0  0
 32 38  2  0  0  0  0
  8 12  1  0  0  0  0
 30 36  1  0  0  0  0
 31 33  1  0  0  0  0
 20 39  1  6  0  0  0
M  END

>  <ACTIVITY>
5.00
$$$$
5988

  Mrv0541 05041708522D          

 38 42  0  0  0  0            999 V2000
   -0.0102   -0.3147    0.0000 C   0  0  1  0  0  0  0  0  0  0  0  0
    0.7082    0.0924    0.0000 C   0  0  2  0  0  0  0  0  0  0  0  0
   -0.7184    0.1026    0.0000 C   0  0  1  0  0  0  0  0  0  0  0  0
   -0.0137   -1.1358    0.0000 C   0  0  1  0  0  0  0  0  0  0  0  0
   -0.4311    0.4105    0.0000 C   0  0  0  0  0  0  0  0  0  0  0  0
    0.7150    0.9168    0.0000 C   0  0  2  0  0  0  0  0  0  0  0  0
    1.4232   -0.3250    0.0000 C   0  0  2  0  0  0  0  0  0  0  0  0
   -1.4369   -0.3078    0.0000 C   0  0  2  0  0  0  0  0  0  0  0  0
   -0.7115    0.9271    0.0000 C   0  0  2  0  0  0  0  0  0  0  0  0
   -0.7252   -1.5498    0.0000 C   0  0  0  0  0  0  0  0  0  0  0  0
    0.6978   -1.5566    0.0000 O   0  0  0  0  0  0  0  0  0  0  0  0
   -0.1129    0.9203    0.0000 O   0  0  0  0  0  0  0  0  0  0  0  0
    0.0034    1.3342    0.0000 C   0  0  2  0  0  0  0  0  0  0  0  0
    1.4300    1.3308    0.0000 C   0  0  0  0  0  0  0  0  0  0  0  0
    1.4163   -1.1494    0.0000 C   0  0  0  0  0  0  0  0  0  0  0  0
    2.1382    0.0958    0.0000 O   0  0  0  0  0  0  0  0  0  0  0  0
   -1.4402   -1.1324    0.0000 C   0  0  1  0  0  0  0  0  0  0  0  0
   -2.1519    0.1061    0.0000 C   0  0  1  0  0  0  0  0  0  0  0  0
   -1.4437    0.5200    0.0000 C   0  0  0  0  0  0  0  0  0  0  0  0
   -1.4300    1.3445    0.0000 O   0  0  0  0  0  0  0  0  0  0  0  0
    0.0102    2.1621    0.0000 O   0  0  0  0  0  0  0  0  0  0  0  0
    2.1450    0.9203    0.0000 O   0  0  0  0  0  0  0  0  0  0  0  0
    1.4265    2.1587    0.0000 O   0  0  0  0  0  0  0  0  0  0  0  0
    2.1313   -1.5703    0.0000 O   0  0  0  0  0  0  0  0  0  0  0  0
    2.8532   -0.3078    0.0000 C   0  0  0  0  0  0  0  0  0  0  0  0
   -2.1519   -1.5463    0.0000 C   0  0  0  0  0  0  0  0  0  0  0  0
   -2.8702   -0.3078    0.0000 C   0  0  0  0  0  0  0  0  0  0  0  0
   -2.1484    0.9340    0.0000 O   0  0  0  0  0  0  0  0  0  0  0  0
    2.8566    1.3376    0.0000 C   0  0  0  0  0  0  0  0  0  0  0  0
    3.5613    0.1129    0.0000 C   0  0  0  0  0  0  0  0  0  0  0  0
    2.8600   -1.1324    0.0000 O   0  0  0  0  0  0  0  0  0  0  0  0
   -2.8702   -1.1324    0.0000 C   0  0  0  0  0  0  0  0  0  0  0  0
   -2.1484   -2.3742    0.0000 C   0  0  0  0  0  0  0  0  0  0  0  0
   -3.5818    0.1061    0.0000 O   0  0  0  0  0  0  0  0  0  0  0  0
    0.7047   -0.7219    0.0000 H   0  0  0  0  0  0  0  0  0  0  0  0
   -0.7219   -0.7150    0.0000 H   0  0  0  0  0  0  0  0  0  0  0  0
   -0.0205   -1.9500    0.0000 H   0  0  0  0  0  0  0  0  0  0  0  0
   -1.4471   -1.9466    0.0000 H   0  0  0  0  0  0  0  0  0  0  0  0
  1  2  1  0  0  0  0
  1  3  1  0  0  0  0
  1  4  1  0  0  0  0
  1  5  1  1  0  0  0
  2  6  1  0  0  0  0
  2  7  1  0  0  0  0
  3  8  1  0  0  0  0
  3  9  1  0  0  0  0
  4 10  1  0  0  0  0
  4 11  1  0  0  0  0
  5 12  1  0  0  0  0
  6 13  1  0  0  0  0
  6 14  1  0  0  0  0
  7 15  1  0  0  0  0
  7 16  1  1  0  0  0
  8 17  1  0  0  0  0
  8 18  1  0  0  0  0
  8 19  1  1  0  0  0
  9 20  1  1  0  0  0
 13 21  1  6  0  0  0
 14 22  1  0  0  0  0
 14 23  2  0  0  0  0
 15 24  2  0  0  0  0
 16 25  1  0  0  0  0
 17 26  1  0  0  0  0
 18 27  1  0  0  0  0
 18 28  1  1  0  0  0
 22 29  1  0  0  0  0
 25 30  1  0  0  0  0
 25 31  2  0  0  0  0
 26 32  2  0  0  0  0
 26 33  1  0  0  0  0
 27 34  2  0  0  0  0
  6 12  1  1  0  0  0
  9 13  1  0  0  0  0
 10 17  1  0  0  0  0
 11 15  1  0  0  0  0
 27 32  1  0  0  0  0
  2 35  1  1  0  0  0
  3 36  1  6  0  0  0
  4 37  1  1  0  0  0
 17 38  1  6  0  0  0
M  END

>  <ACTIVITY>
5.00
$$$$
5995
 
  Mrv0541 05041708522D          
 
 37 39  0  0  1  0            999 V2000
   16.2894  -10.3849    0.0000 C   0  0  1  0  0  0  0  0  0  0  0  0
   17.0026   -9.9735    0.0000 C   0  0  1  0  0  0  0  0  0  0  0  0
   15.5728   -9.9735    0.0000 C   0  0  1  0  0  0  0  0  0  0  0  0
   16.2894  -11.2078    0.0000 O   0  0  0  0  0  0  0  0  0  0  0  0
   17.0026   -9.1473    0.0000 C   0  0  0  0  0  0  0  0  0  0  0  0
   17.7157  -10.3815    0.0000 O   0  0  0  0  0  0  0  0  0  0  0  0
   15.5728   -9.1473    0.0000 C   0  0  0  0  0  0  0  0  0  0  0  0
   14.8596  -10.3849    0.0000 O   0  0  0  0  0  0  0  0  0  0  0  0
   15.5762  -11.6193    0.0000 C   0  0  0  0  0  0  0  0  0  0  0  0
   16.2894   -8.7358    0.0000 C   0  0  1  0  0  0  0  0  0  0  0  0
   18.4289   -9.9701    0.0000 C   0  0  0  0  0  0  0  0  0  0  0  0
   14.8665  -11.2045    0.0000 C   0  0  0  0  0  0  0  0  0  0  0  0
   15.5762  -12.4421    0.0000 O   0  0  0  0  0  0  0  0  0  0  0  0
   16.2894   -7.9095    0.0000 C   0  0  0  0  0  0  0  0  0  0  0  0
   15.5693   -8.3243    0.0000 O   0  0  0  0  0  0  0  0  0  0  0  0
   19.1419  -10.3781    0.0000 C   0  0  0  0  0  0  0  0  0  0  0  0
   18.4255   -9.1438    0.0000 O   0  0  0  0  0  0  0  0  0  0  0  0
   14.1568  -11.6193    0.0000 C   0  0  0  0  0  0  0  0  0  0  0  0
   17.0060   -7.5015    0.0000 O   0  0  0  0  0  0  0  0  0  0  0  0
   15.5762   -7.4981    0.0000 O   0  0  0  0  0  0  0  0  0  0  0  0
   19.8483   -9.9701    0.0000 C   0  0  0  0  0  0  0  0  0  0  0  0
   13.4436  -11.2045    0.0000 C   0  0  0  0  0  0  0  0  0  0  0  0
   20.5614  -10.3781    0.0000 C   0  0  0  0  0  0  0  0  0  0  0  0
   12.7305  -11.6227    0.0000 C   0  0  0  0  0  0  0  0  0  0  0  0
   13.4403  -10.3781    0.0000 C   0  0  0  0  0  0  0  0  0  0  0  0
   21.2780   -9.9735    0.0000 C   0  0  0  0  0  0  0  0  0  0  0  0
   20.5581  -11.2045    0.0000 C   0  0  0  0  0  0  0  0  0  0  0  0
   11.9727  -11.2113    0.0000 C   0  0  0  0  0  0  0  0  0  0  0  0
   12.7237   -9.9735    0.0000 C   0  0  0  0  0  0  0  0  0  0  0  0
   21.9912  -10.3849    0.0000 C   0  0  0  0  0  0  0  0  0  0  0  0
   21.2711  -11.6227    0.0000 C   0  0  0  0  0  0  0  0  0  0  0  0
   12.0104  -10.3849    0.0000 C   0  0  0  0  0  0  0  0  0  0  0  0
   11.3042  -11.6296    0.0000 O   0  0  0  0  0  0  0  0  0  0  0  0
   21.9877  -11.2113    0.0000 C   0  0  0  0  0  0  0  0  0  0  0  0
   22.7077   -9.9804    0.0000 O   0  0  0  0  0  0  0  0  0  0  0  0
   11.2939   -9.9804    0.0000 O   0  0  0  0  0  0  0  0  0  0  0  0
   22.6974  -11.6296    0.0000 O   0  0  0  0  0  0  0  0  0  0  0  0
  1  2  1  0  0  0  0
  1  3  1  0  0  0  0
  1  4  1  6  0  0  0
  2  5  1  0  0  0  0
  2  6  1  1  0  0  0
  3  7  1  0  0  0  0
  3  8  1  6  0  0  0
  4  9  1  0  0  0  0
  5 10  1  0  0  0  0
  6 11  1  0  0  0  0
  9 12  1  0  0  0  0
  9 13  2  0  0  0  0
 10 14  1  1  0  0  0
 10 15  1  6  0  0  0
 11 16  1  0  0  0  0
 11 17  2  0  0  0  0
 12 18  2  0  0  0  0
 14 19  1  0  0  0  0
 14 20  2  0  0  0  0
 16 21  2  0  0  0  0
 18 22  1  0  0  0  0
 21 23  1  0  0  0  0
 22 24  1  0  0  0  0
 22 25  2  0  0  0  0
 23 26  1  0  0  0  0
 23 27  2  0  0  0  0
 24 28  2  0  0  0  0
 25 29  1  0  0  0  0
 26 30  2  0  0  0  0
 27 31  1  0  0  0  0
 28 32  1  0  0  0  0
 28 33  1  0  0  0  0
 30 34  1  0  0  0  0
 30 35  1  0  0  0  0
 32 36  1  0  0  0  0
 34 37  1  0  0  0  0
  7 10  1  0  0  0  0
 29 32  2  0  0  0  0
 31 34  2  0  0  0  0
M  END

>  <ACTIVITY>
5.00
$$$$
6063

  Mrv0541 05041708522D          

 22 24  0  0  0  0            999 V2000
   -2.3052    0.4426    0.0000 C   0  0  0  0  0  0  0  0  0  0  0  0
   -0.8853    0.4391    0.0000 C   0  0  0  0  0  0  0  0  0  0  0  0
   -2.3087   -0.3789    0.0000 C   0  0  0  0  0  0  0  0  0  0  0  0
   -3.0276    0.8604    0.0000 C   0  0  0  0  0  0  0  0  0  0  0  0
   -0.2975    1.0234    0.0000 O   0  0  0  0  0  0  0  0  0  0  0  0
   -0.8888   -0.3824    0.0000 C   0  0  0  0  0  0  0  0  0  0  0  0
   -1.6041   -0.8003    0.0000 N   0  0  0  0  0  0  0  0  0  0  0  0
   -3.0276   -0.7932    0.0000 C   0  0  0  0  0  0  0  0  0  0  0  0
   -3.7393    0.4462    0.0000 C   0  0  0  0  0  0  0  0  0  0  0  0
    0.4993    0.8109    0.0000 C   0  0  0  0  0  0  0  0  0  0  0  0
   -3.7393   -0.3789    0.0000 C   0  0  0  0  0  0  0  0  0  0  0  0
    0.9100    0.0992    0.0000 C   0  0  0  0  0  0  0  0  0  0  0  0
    1.0836    1.3951    0.0000 O   0  0  0  0  0  0  0  0  0  0  0  0
    1.5863    0.5878    0.0000 O   0  0  0  0  0  0  0  0  0  0  0  0
    1.1721   -0.6834    0.0000 C   0  0  2  0  0  0  0  0  0  0  0  0
    2.2557    0.0992    0.0000 C   0  0  1  0  0  0  0  0  0  0  0  0
    1.9971   -0.6834    0.0000 C   0  0  1  0  0  0  0  0  0  0  0  0
    0.7648   -1.3987    0.0000 O   0  0  0  0  0  0  0  0  0  0  0  0
    2.9709   -0.3116    0.0000 C   0  0  0  0  0  0  0  0  0  0  0  0
    2.4716    0.8994    0.0000 O   0  0  0  0  0  0  0  0  0  0  0  0
    2.4185   -1.3987    0.0000 O   0  0  0  0  0  0  0  0  0  0  0  0
    3.6897    0.1027    0.0000 O   0  0  0  0  0  0  0  0  0  0  0  0
  1  2  1  0  0  0  0
  1  3  2  0  0  0  0
  1  4  1  0  0  0  0
  2  5  1  0  0  0  0
  2  6  2  0  0  0  0
  3  7  1  0  0  0  0
  3  8  1  0  0  0  0
  4  9  2  0  0  0  0
  5 10  1  0  0  0  0
  8 11  2  0  0  0  0
 10 12  1  0  0  0  0
 10 13  2  0  0  0  0
 12 14  1  0  0  0  0
 12 15  1  0  0  0  0
 14 16  1  0  0  0  0
 15 17  1  0  0  0  0
 15 18  1  6  0  0  0
 16 19  1  6  0  0  0
 16 20  1  1  0  0  0
 17 21  1  1  0  0  0
 19 22  1  0  0  0  0
  6  7  1  0  0  0  0
  9 11  1  0  0  0  0
 16 17  1  0  0  0  0
M  END

>  <ACTIVITY>
5.00
$$$$
6094
 
  Mrv0541 05041708522D          
 
 27 31  0  0  0  0            999 V2000
   15.2513  -12.8085    0.0000 C   0  0  0  0  0  0  0  0  0  0  0  0
   14.5385  -12.3918    0.0000 C   0  0  0  0  0  0  0  0  0  0  0  0
   15.9640  -12.4022    0.0000 C   0  0  0  0  0  0  0  0  0  0  0  0
   15.2444  -13.6314    0.0000 C   0  0  0  0  0  0  0  0  0  0  0  0
   14.5420  -11.5689    0.0000 C   0  0  0  0  0  0  0  0  0  0  0  0
   13.8327  -12.8050    0.0000 C   0  0  0  0  0  0  0  0  0  0  0  0
   15.9709  -11.5758    0.0000 C   0  0  0  0  0  0  0  0  0  0  0  0
   16.7490  -12.6638    0.0000 C   0  0  0  0  0  0  0  0  0  0  0  0
   15.9571  -14.0410    0.0000 C   0  0  0  0  0  0  0  0  0  0  0  0
   14.5316  -14.0341    0.0000 C   0  0  0  0  0  0  0  0  0  0  0  0
   15.2581  -11.1591    0.0000 C   0  0  0  0  0  0  0  0  0  0  0  0
   13.8327  -11.1557    0.0000 C   0  0  0  0  0  0  0  0  0  0  0  0
   16.7594  -11.3244    0.0000 C   0  0  0  0  0  0  0  0  0  0  0  0
   17.2413  -11.9993    0.0000 O   0  0  0  0  0  0  0  0  0  0  0  0
   16.9969  -13.4489    0.0000 O   0  0  0  0  0  0  0  0  0  0  0  0
   15.9537  -14.8640    0.0000 C   0  0  0  0  0  0  0  0  0  0  0  0
   14.5247  -14.8571    0.0000 C   0  0  0  0  0  0  0  0  0  0  0  0
   15.2341  -15.2737    0.0000 C   0  0  0  0  0  0  0  0  0  0  0  0
   16.5631  -15.4253    0.0000 O   0  0  0  0  0  0  0  0  0  0  0  0
   15.3993  -16.0863    0.0000 O   0  0  0  0  0  0  0  0  0  0  0  0
   16.2222  -16.1793    0.0000 C   0  0  0  0  0  0  0  0  0  0  0  0
   13.1143  -12.3939    0.0000 C   0  0  0  0  0  0  0  0  0  0  0  0
   13.1165  -11.5689    0.0000 C   0  0  0  0  0  0  0  0  0  0  0  0
   12.4038  -11.1560    0.0000 O   0  0  0  0  0  0  0  0  0  0  0  0
   12.4012  -12.8062    0.0000 O   0  0  0  0  0  0  0  0  0  0  0  0
   11.6897  -11.5667    0.0000 C   0  0  0  0  0  0  0  0  0  0  0  0
   11.6875  -12.3947    0.0000 C   0  0  0  0  0  0  0  0  0  0  0  0
  3  7  1  0  0  0  0
  3  8  1  0  0  0  0
  4  9  2  0  0  0  0
  4 10  1  0  0  0  0
  5 11  1  0  0  0  0
  5 12  1  0  0  0  0
  6 22  2  0  0  0  0
  7 13  1  0  0  0  0
  8 14  1  0  0  0  0
  8 15  2  0  0  0  0
  9 16  1  0  0  0  0
 10 17  2  0  0  0  0
 12 23  2  0  0  0  0
 16 18  2  0  0  0  0
 16 19  1  0  0  0  0
 18 20  1  0  0  0  0
 19 21  1  0  0  0  0
  7 11  2  0  0  0  0
 13 14  1  0  0  0  0
 17 18  1  0  0  0  0
 20 21  1  0  0  0  0
  1  2  1  0  0  0  0
 22 23  1  0  0  0  0
  1  3  2  0  0  0  0
 23 24  1  0  0  0  0
  1  4  1  0  0  0  0
 22 25  1  0  0  0  0
  2  5  2  0  0  0  0
 24 26  1  0  0  0  0
  2  6  1  0  0  0  0
 25 27  1  0  0  0  0
M  END

>  <ACTIVITY>
5.00
$$$$
6111

  Mrv0541 05041708522D          

 55 59  0  0  0  0            999 V2000
   -0.2246    0.9571    0.0000 C   0  0  2  0  0  0  0  0  0  0  0  0
   -0.7117    0.2972    0.0000 C   0  0  1  0  0  0  0  0  0  0  0  0
   -0.6945    1.6240    0.0000 C   0  0  2  0  0  0  0  0  0  0  0  0
    0.4008    1.4270    0.0000 C   0  0  0  0  0  0  0  0  0  0  0  0
   -0.2350    1.7829    0.0000 O   0  0  0  0  0  0  0  0  0  0  0  0
   -0.5010   -0.5010    0.0000 C   0  0  2  0  0  0  0  0  0  0  0  0
   -1.4858    0.5632    0.0000 C   0  0  2  0  0  0  0  0  0  0  0  0
   -1.4754    1.3787    0.0000 C   0  0  1  0  0  0  0  0  0  0  0  0
   -1.2819    2.2079    0.0000 O   0  0  0  0  0  0  0  0  0  0  0  0
    0.1832    2.2252    0.0000 C   0  0  2  0  0  0  0  0  0  0  0  0
    1.1092    1.0159    0.0000 O   0  0  0  0  0  0  0  0  0  0  0  0
   -0.4423    2.5742    0.0000 C   0  0  0  0  0  0  0  0  0  0  0  0
    0.0518   -1.1092    0.0000 C   0  0  0  0  0  0  0  0  0  0  0  0
   -1.2163   -0.9052    0.0000 O   0  0  0  0  0  0  0  0  0  0  0  0
   -2.1561    0.0899    0.0000 O   0  0  0  0  0  0  0  0  0  0  0  0
   -2.1907    0.9779    0.0000 C   0  0  0  0  0  0  0  0  0  0  0  0
   -2.1907    1.7934    0.0000 O   0  0  0  0  0  0  0  0  0  0  0  0
    0.8949    2.6433    0.0000 C   0  0  1  0  0  0  0  0  0  0  0  0
    0.1797    3.0476    0.0000 C   0  0  0  0  0  0  0  0  0  0  0  0
   -1.2370    2.7850    0.0000 C   0  0  0  0  0  0  0  0  0  0  0  0
   -0.4457    3.3966    0.0000 O   0  0  0  0  0  0  0  0  0  0  0  0
    0.8708   -1.0643    0.0000 C   0  0  1  0  0  0  0  0  0  0  0  0
    0.0449   -1.9349    0.0000 C   0  0  0  0  0  0  0  0  0  0  0  0
   -1.2266   -1.7345    0.0000 C   0  0  0  0  0  0  0  0  0  0  0  0
   -2.8679    0.5010    0.0000 C   0  0  0  0  0  0  0  0  0  0  0  0
    1.5066    1.9384    0.0000 C   0  0  1  0  0  0  0  0  0  0  0  0
    1.8072    2.8265    0.0000 O   0  0  0  0  0  0  0  0  0  0  0  0
    1.3441   -0.3905    0.0000 C   0  0  2  0  0  0  0  0  0  0  0  0
    1.2785   -1.7691    0.0000 O   0  0  0  0  0  0  0  0  0  0  0  0
   -1.9488   -2.1389    0.0000 C   0  0  0  0  0  0  0  0  0  0  0  0
   -0.5148   -2.1527    0.0000 O   0  0  0  0  0  0  0  0  0  0  0  0
   -3.5832    0.0899    0.0000 C   0  0  0  0  0  0  0  0  0  0  0  0
   -2.8679    1.3234    0.0000 O   0  0  0  0  0  0  0  0  0  0  0  0
    1.5100    1.1161    0.0000 C   0  0  0  0  0  0  0  0  0  0  0  0
    1.1092    0.4008    0.0000 C   0  0  0  0  0  0  0  0  0  0  0  0
    2.1319   -0.6012    0.0000 O   0  0  0  0  0  0  0  0  0  0  0  0
    1.9868   -2.1803    0.0000 C   0  0  0  0  0  0  0  0  0  0  0  0
   -2.6675   -1.7242    0.0000 C   0  0  0  0  0  0  0  0  0  0  0  0
   -1.9454   -2.9681    0.0000 C   0  0  0  0  0  0  0  0  0  0  0  0
    2.3323    1.1161    0.0000 C   0  0  0  0  0  0  0  0  0  0  0  0
    2.0974    0.5356    0.0000 C   0  0  0  0  0  0  0  0  0  0  0  0
    0.3075    0.1866    0.0000 O   0  0  0  0  0  0  0  0  0  0  0  0
    2.6952   -1.7622    0.0000 C   0  0  0  0  0  0  0  0  0  0  0  0
    1.9833   -3.0027    0.0000 O   0  0  0  0  0  0  0  0  0  0  0  0
   -3.3828   -2.1423    0.0000 C   0  0  0  0  0  0  0  0  0  0  0  0
   -2.6640   -3.3828    0.0000 C   0  0  0  0  0  0  0  0  0  0  0  0
    3.4103   -2.1768    0.0000 C   0  0  0  0  0  0  0  0  0  0  0  0
    2.6952   -0.9398    0.0000 C   0  0  0  0  0  0  0  0  0  0  0  0
   -3.3828   -2.9681    0.0000 C   0  0  0  0  0  0  0  0  0  0  0  0
    4.1256   -1.7657    0.0000 C   0  0  0  0  0  0  0  0  0  0  0  0
    3.4103   -0.5252    0.0000 C   0  0  0  0  0  0  0  0  0  0  0  0
    4.1256   -0.9398    0.0000 C   0  0  0  0  0  0  0  0  0  0  0  0
   -1.4339   -0.1105    0.0000 H   0  0  0  0  0  0  0  0  0  0  0  0
    1.2992    3.3655    0.0000 H   0  0  0  0  0  0  0  0  0  0  0  0
    2.2978    2.1561    0.0000 H   0  0  0  0  0  0  0  0  0  0  0  0
  1  2  1  0  0  0  0
  1  3  1  0  0  0  0
  1  4  1  0  0  0  0
  1  5  1  1  0  0  0
  2  6  1  0  0  0  0
  2  7  1  0  0  0  0
  3  8  1  0  0  0  0
  3  9  1  6  0  0  0
  4 10  1  0  0  0  0
  4 11  2  0  0  0  0
  5 12  1  0  0  0  0
  6 13  1  0  0  0  0
  6 14  1  6  0  0  0
  7 15  1  1  0  0  0
  8 16  1  1  0  0  0
  8 17  1  6  0  0  0
 10 18  1  0  0  0  0
 10 19  1  1  0  0  0
 12 20  1  0  0  0  0
 12 21  2  0  0  0  0
 13 22  1  0  0  0  0
 13 23  2  0  0  0  0
 14 24  1  0  0  0  0
 15 25  1  0  0  0  0
 18 26  1  0  0  0  0
 18 27  1  0  0  0  0
 22 28  1  0  0  0  0
 22 29  1  1  0  0  0
 24 30  1  0  0  0  0
 24 31  2  0  0  0  0
 25 32  1  0  0  0  0
 25 33  2  0  0  0  0
 26 34  1  0  0  0  0
 28 35  1  0  0  0  0
 28 36  1  6  0  0  0
 29 37  1  0  0  0  0
 30 38  2  0  0  0  0
 30 39  1  0  0  0  0
 34 40  1  0  0  0  0
 34 41  1  0  0  0  0
 35 42  2  0  0  0  0
 37 43  1  0  0  0  0
 37 44  2  0  0  0  0
 38 45  1  0  0  0  0
 39 46  2  0  0  0  0
 43 47  1  0  0  0  0
 43 48  2  0  0  0  0
 45 49  2  0  0  0  0
 47 50  2  0  0  0  0
 48 51  1  0  0  0  0
 50 52  1  0  0  0  0
  7  8  1  0  0  0  0
 26 27  1  0  0  0  0
 34 35  1  0  0  0  0
 46 49  1  0  0  0  0
 51 52  2  0  0  0  0
  2 53  1  6  0  0  0
 18 54  1  1  0  0  0
 26 55  1  6  0  0  0
M  END

>  <ACTIVITY>
5.00
$$$$
6114

  Mrv0541 05041708522D          

 21 23  0  0  1  0            999 V2000
   15.9362  -14.9550    0.0000 C   0  0  0  0  0  0  0  0  0  0  0  0
   15.9604  -14.1309    0.0000 C   0  0  0  0  0  0  0  0  0  0  0  0
   16.6362  -15.3826    0.0000 C   0  0  0  0  0  0  0  0  0  0  0  0
   15.2053  -15.3446    0.0000 C   0  0  0  0  0  0  0  0  0  0  0  0
   16.6776  -13.7378    0.0000 C   0  0  0  0  0  0  0  0  0  0  0  0
   15.2570  -13.6895    0.0000 C   0  0  0  0  0  0  0  0  0  0  0  0
   17.3603  -14.9894    0.0000 C   0  0  0  0  0  0  0  0  0  0  0  0
   16.6155  -16.2100    0.0000 O   0  0  0  0  0  0  0  0  0  0  0  0
   14.5019  -14.9101    0.0000 C   0  0  0  0  0  0  0  0  0  0  0  0
   15.1811  -16.1756    0.0000 O   0  0  0  0  0  0  0  0  0  0  0  0
   17.3810  -14.1689    0.0000 C   0  0  0  0  0  0  0  0  0  0  0  0
   14.5261  -14.0827    0.0000 C   0  0  0  0  0  0  0  0  0  0  0  0
   18.0602  -15.4170    0.0000 C   0  0  2  0  0  0  0  0  0  0  0  0
   14.4502  -16.5687    0.0000 C   0  0  0  0  0  0  0  0  0  0  0  0
   18.1015  -13.7723    0.0000 C   0  0  0  0  0  0  0  0  0  0  0  0
   13.8226  -13.6414    0.0000 O   0  0  0  0  0  0  0  0  0  0  0  0
   18.7842  -15.0274    0.0000 O   0  0  0  0  0  0  0  0  0  0  0  0
   18.0395  -16.2480    0.0000 C   0  0  0  0  0  0  0  0  0  0  0  0
   18.8049  -14.2033    0.0000 C   0  0  1  0  0  0  0  0  0  0  0  0
   13.0917  -14.0344    0.0000 C   0  0  0  0  0  0  0  0  0  0  0  0
   19.5325  -13.8102    0.0000 C   0  0  0  0  0  0  0  0  0  0  0  0
  1  2  2  0  0  0  0
  1  3  1  0  0  0  0
  1  4  1  0  0  0  0
  2  5  1  0  0  0  0
  2  6  1  0  0  0  0
  3  7  2  0  0  0  0
  3  8  1  0  0  0  0
  4  9  2  0  0  0  0
  4 10  1  0  0  0  0
  5 11  2  0  0  0  0
  6 12  2  0  0  0  0
  7 13  1  0  0  0  0
 10 14  1  0  0  0  0
 11 15  1  0  0  0  0
 12 16  1  0  0  0  0
 13 17  1  0  0  0  0
 13 18  1  6  0  0  0
 15 19  1  0  0  0  0
 16 20  1  0  0  0  0
 19 21  1  6  0  0  0
  7 11  1  0  0  0  0
  9 12  1  0  0  0  0
 17 19  1  0  0  0  0
M  END

>  <ACTIVITY>
5.00
$$$$
6372

  Mrv0541 05041708522D          

 46 51  0  0  0  0            999 V2000
    2.9640  -14.4748    0.0000 C   0  0  1  0  0  0  0  0  0  0  0  0
    2.9852  -15.3022    0.0000 C   0  0  1  0  0  0  0  0  0  0  0  0
    2.2392  -14.0790    0.0000 O   0  0  0  0  0  0  0  0  0  0  0  0
    2.2786  -15.7322    0.0000 C   0  0  1  0  0  0  0  0  0  0  0  0
    3.7100  -15.6979    0.0000 O   0  0  0  0  0  0  0  0  0  0  0  0
    1.5339  -14.5137    0.0000 C   0  0  2  0  0  0  0  0  0  0  0  0
    1.5537  -15.3365    0.0000 C   0  0  2  0  0  0  0  0  0  0  0  0
    2.3014  -16.5566    0.0000 O   0  0  0  0  0  0  0  0  0  0  0  0
    0.8091  -14.1180    0.0000 C   0  0  0  0  0  0  0  0  0  0  0  0
    0.8518  -15.7650    0.0000 O   0  0  0  0  0  0  0  0  0  0  0  0
    5.8329  -12.8250    0.0000 C   0  0  1  0  0  0  0  0  0  0  0  0
    5.8294  -13.6508    0.0000 C   0  0  1  0  0  0  0  0  0  0  0  0
    6.5472  -12.4173    0.0000 C   0  0  2  0  0  0  0  0  0  0  0  0
    5.1221  -12.4138    0.0000 C   0  0  0  0  0  0  0  0  0  0  0  0
    5.8259  -12.0026    0.0000 C   0  0  0  0  0  0  0  0  0  0  0  0
    5.1221  -14.0654    0.0000 C   0  0  0  0  0  0  0  0  0  0  0  0
    6.5402  -14.0689    0.0000 C   0  0  0  0  0  0  0  0  0  0  0  0
    5.8225  -14.4731    0.0000 O   0  0  0  0  0  0  0  0  0  0  0  0
    7.2580  -12.8355    0.0000 C   0  0  1  0  0  0  0  0  0  0  0  0
    6.5541  -11.5950    0.0000 C   0  0  0  0  0  0  0  0  0  0  0  0
    4.4043  -12.8250    0.0000 C   0  0  0  0  0  0  0  0  0  0  0  0
    5.1116  -11.5881    0.0000 O   0  0  0  0  0  0  0  0  0  0  0  0
    4.4043  -13.6508    0.0000 C   0  0  2  0  0  0  0  0  0  0  0  0
    7.2580  -13.6578    0.0000 C   0  0  0  0  0  0  0  0  0  0  0  0
    6.5332  -14.8807    0.0000 C   0  0  0  0  0  0  0  0  0  0  0  0
    7.9723  -12.4277    0.0000 C   0  0  2  0  0  0  0  0  0  0  0  0
    7.2720  -11.1874    0.0000 C   0  0  0  0  0  0  0  0  0  0  0  0
    3.6900  -14.0654    0.0000 O   0  0  0  0  0  0  0  0  0  0  0  0
    6.5368  -15.7066    0.0000 C   0  0  0  0  0  0  0  0  0  0  0  0
    7.2441  -14.4696    0.0000 O   0  0  0  0  0  0  0  0  0  0  0  0
    7.9827  -11.6054    0.0000 C   0  0  2  0  0  0  0  0  0  0  0  0
    9.3904  -12.4452    0.0000 C   0  0  0  0  0  0  0  0  0  0  0  0
    7.9654  -13.2466    0.0000 O   0  0  0  0  0  0  0  0  0  0  0  0
    8.6970  -11.2048    0.0000 C   0  0  2  0  0  0  0  0  0  0  0  0
    7.9793  -10.7797    0.0000 C   0  0  0  0  0  0  0  0  0  0  0  0
    9.4009  -11.6229    0.0000 C   0  0  0  0  0  0  0  0  0  0  0  0
    8.7075  -10.3755    0.0000 C   0  0  0  0  0  0  0  0  0  0  0  0
    9.4183   -9.9609    0.0000 C   0  0  0  0  0  0  0  0  0  0  0  0
    7.9897   -9.9679    0.0000 C   0  0  0  0  0  0  0  0  0  0  0  0
    9.4113   -9.1351    0.0000 C   0  0  0  0  0  0  0  0  0  0  0  0
    7.9863   -9.1420    0.0000 O   0  0  0  0  0  0  0  0  0  0  0  0
    8.6970   -8.7239    0.0000 C   0  0  0  0  0  0  0  0  0  0  0  0
    8.6936   -7.8987    0.0000 O   0  0  0  0  0  0  0  0  0  0  0  0
    6.5437  -13.2501    0.0000 H   0  0  0  0  0  0  0  0  0  0  0  0
    7.2511  -11.9992    0.0000 H   0  0  0  0  0  0  0  0  0  0  0  0
    9.4140  -10.7824    0.0000 H   0  0  0  0  0  0  0  0  0  0  0  0
  2  4  1  0  0  0  0
  2  5  1  6  0  0  0
  3  6  1  0  0  0  0
  4  7  1  0  0  0  0
  4  8  1  6  0  0  0
  6  9  1  6  0  0  0
  7 10  1  1  0  0  0
  6  7  1  0  0  0  0
  1  2  1  0  0  0  0
 11 12  1  0  0  0  0
 11 13  1  0  0  0  0
 11 14  1  0  0  0  0
 11 15  1  1  0  0  0
 12 16  1  0  0  0  0
 12 17  1  0  0  0  0
 12 18  1  1  0  0  0
 13 19  1  0  0  0  0
 13 20  1  0  0  0  0
 14 21  1  0  0  0  0
 15 22  2  0  0  0  0
 16 23  1  0  0  0  0
 17 24  1  0  0  0  0
 18 25  1  0  0  0  0
 19 26  1  0  0  0  0
 20 27  1  0  0  0  0
 23 28  1  1  0  0  0
 25 29  1  0  0  0  0
 25 30  2  0  0  0  0
 26 31  1  0  0  0  0
 26 32  1  0  0  0  0
 26 33  1  1  0  0  0
 31 34  1  0  0  0  0
 31 35  1  1  0  0  0
 32 36  1  0  0  0  0
 34 37  1  0  0  0  0
 37 38  1  0  0  0  0
 37 39  2  0  0  0  0
 38 40  2  0  0  0  0
 39 41  1  0  0  0  0
 40 42  1  0  0  0  0
 42 43  2  0  0  0  0
 19 24  1  0  0  0  0
 21 23  1  0  0  0  0
 27 31  1  0  0  0  0
 34 36  1  0  0  0  0
 41 42  1  0  0  0  0
 13 44  1  6  0  0  0
 19 45  1  1  0  0  0
  1 28  1  1  0  0  0
  1  3  1  0  0  0  0
 34 46  1  6  0  0  0
M  END

>  <ACTIVITY>
5.00
$$$$
6459
 
  Mrv0541 05041708522D          
 
 25 27  0  0  1  0            999 V2000
   14.7138   -8.8348    0.0000 C   0  0  1  0  0  0  0  0  0  0  0  0
   15.2405   -9.4744    0.0000 C   0  0  1  0  0  0  0  0  0  0  0  0
   14.8875   -8.0286    0.0000 C   0  0  1  0  0  0  0  0  0  0  0  0
   13.8978   -8.9141    0.0000 C   0  0  0  0  0  0  0  0  0  0  0  0
   14.3013   -9.5395    0.0000 C   0  0  0  0  0  0  0  0  0  0  0  0
   16.0714   -9.4593    0.0000 C   0  0  2  0  0  0  0  0  0  0  0  0
   15.0000  -10.2739    0.0000 O   0  0  0  0  0  0  0  0  0  0  0  0
   14.1734   -7.6186    0.0000 C   0  0  0  0  0  0  0  0  0  0  0  0
   15.6283   -7.6509    0.0000 C   0  0  2  0  0  0  0  0  0  0  0  0
   13.5644   -8.1667    0.0000 C   0  0  0  0  0  0  0  0  0  0  0  0
   13.4848   -9.6264    0.0000 O   0  0  0  0  0  0  0  0  0  0  0  0
   14.2655  -10.3608    0.0000 O   0  0  0  0  0  0  0  0  0  0  0  0
   16.3507  -10.2471    0.0000 C   0  0  0  0  0  0  0  0  0  0  0  0
   16.5771   -8.8001    0.0000 C   0  0  0  0  0  0  0  0  0  0  0  0
   15.6840  -10.7501    0.0000 C   0  0  0  0  0  0  0  0  0  0  0  0
   16.3827   -7.9975    0.0000 C   0  0  0  0  0  0  0  0  0  0  0  0
   15.6142   -6.8324    0.0000 C   0  0  0  0  0  0  0  0  0  0  0  0
   13.5976  -10.7720    0.0000 C   0  0  0  0  0  0  0  0  0  0  0  0
   17.1365  -10.4836    0.0000 C   0  0  0  0  0  0  0  0  0  0  0  0
   15.7049  -11.5725    0.0000 O   0  0  0  0  0  0  0  0  0  0  0  0
   15.4519   -8.6782    0.0000 H   0  0  0  0  0  0  0  0  0  0  0  0
   14.8827   -7.1989    0.0000 H   0  0  0  0  0  0  0  0  0  0  0  0
   16.8951   -9.4512    0.0000 H   0  0  0  0  0  0  0  0  0  0  0  0
   12.8824  -10.3607    0.0000 C   0  0  0  0  0  0  0  0  0  0  0  0
   13.5990  -11.5969    0.0000 O   0  0  0  0  0  0  0  0  0  0  0  0
  1  3  1  0  0  0  0
  1  4  1  0  0  0  0
  1  5  1  1  0  0  0
  2  6  1  0  0  0  0
  2  7  1  0  0  0  0
  3  8  1  0  0  0  0
  3  9  1  0  0  0  0
  4 10  1  0  0  0  0
  4 11  2  0  0  0  0
  5 12  1  0  0  0  0
  6 13  1  0  0  0  0
  6 14  1  0  0  0  0
  7 15  1  0  0  0  0
  9 16  1  0  0  0  0
  9 17  1  1  0  0  0
 12 18  1  0  0  0  0
 13 19  2  0  0  0  0
 15 20  2  0  0  0  0
  8 10  1  0  0  0  0
 13 15  1  0  0  0  0
 14 16  1  0  0  0  0
  2 21  1  6  0  0  0
  3 22  1  6  0  0  0
  6 23  1  6  0  0  0
 18 24  1  0  0  0  0
  1  2  1  0  0  0  0
 18 25  2  0  0  0  0
M  END

>  <ACTIVITY>
5.00
$$$$
6594

  Mrv0541 05041708522D          

 19 18  0  0  0  0            999 V2000
   -0.1514   -0.8671    0.0000 C   0  0  0  0  0  0  0  0  0  0  0  0
   -0.1480   -0.0447    0.0000 C   0  0  0  0  0  0  0  0  0  0  0  0
   -0.8671   -1.2765    0.0000 N   0  0  0  0  0  0  0  0  0  0  0  0
    0.5643   -1.2834    0.0000 C   0  0  0  0  0  0  0  0  0  0  0  0
    0.5678    0.3613    0.0000 N   0  0  0  0  0  0  0  0  0  0  0  0
   -1.5794   -0.8636    0.0000 C   0  0  0  0  0  0  0  0  0  0  0  0
    1.2732   -0.8705    0.0000 O   0  0  0  0  0  0  0  0  0  0  0  0
    0.5678   -2.1126    0.0000 O   0  0  0  0  0  0  0  0  0  0  0  0
    0.5609    1.1905    0.0000 C   0  0  1  0  0  0  0  0  0  0  0  0
   -2.2882   -1.2732    0.0000 C   0  0  0  0  0  0  0  0  0  0  0  0
    1.2732    1.6068    0.0000 C   0  0  0  0  0  0  0  0  0  0  0  0
   -0.1549    1.6068    0.0000 C   0  0  0  0  0  0  0  0  0  0  0  0
   -3.0004   -0.8602    0.0000 N   0  0  0  0  0  0  0  0  0  0  0  0
   -2.2950   -2.0955    0.0000 O   0  0  0  0  0  0  0  0  0  0  0  0
    1.9888    1.1871    0.0000 C   0  0  0  0  0  0  0  0  0  0  0  0
   -0.8671    1.1940    0.0000 O   0  0  0  0  0  0  0  0  0  0  0  0
   -0.1445    2.4326    0.0000 O   0  0  0  0  0  0  0  0  0  0  0  0
    2.7045    1.6034    0.0000 O   0  0  0  0  0  0  0  0  0  0  0  0
    1.9923    0.3578    0.0000 O   0  0  0  0  0  0  0  0  0  0  0  0
  1  2  1  0  0  0  0
  1  3  1  0  0  0  0
  1  4  1  0  0  0  0
  2  5  1  0  0  0  0
  3  6  1  0  0  0  0
  4  7  1  0  0  0  0
  4  8  2  0  0  0  0
  9  5  1  6  0  0  0
  6 10  1  0  0  0  0
  9 11  1  0  0  0  0
  9 12  1  0  0  0  0
 10 13  1  0  0  0  0
 10 14  2  0  0  0  0
 11 15  1  0  0  0  0
 12 16  1  0  0  0  0
 12 17  2  0  0  0  0
 15 18  1  0  0  0  0
 15 19  2  0  0  0  0
M  END

>  <ACTIVITY>
5.00
$$$$
6740

  Mrv0541 05041708522D          

 22 24  0  0  0  0            999 V2000
    8.3952  -13.8187    0.0000 C   0  0  0  0  0  0  0  0  0  0  0  0
    8.3977  -12.9938    0.0000 C   0  0  0  0  0  0  0  0  0  0  0  0
    6.9754  -12.9895    0.0000 C   0  0  0  0  0  0  0  0  0  0  0  0
    6.9729  -13.8144    0.0000 C   0  0  0  0  0  0  0  0  0  0  0  0
    7.6850  -14.2354    0.0000 N   0  0  0  0  0  0  0  0  0  0  0  0
    2.6874  -10.5172    0.0000 C   0  0  0  0  0  0  0  0  0  0  0  0
    1.9693  -10.1025    0.0000 C   0  0  0  0  0  0  0  0  0  0  0  0
    1.2523  -10.5191    0.0000 C   0  0  0  0  0  0  0  0  0  0  0  0
    1.2535  -11.3460    0.0000 C   0  0  0  0  0  0  0  0  0  0  0  0
    2.6885  -11.3440    0.0000 C   0  0  0  0  0  0  0  0  0  0  0  0
    1.9651  -11.7524    0.0000 C   0  0  0  0  0  0  0  0  0  0  0  0
    6.2533  -11.7544    0.0000 C   0  0  0  0  0  0  0  0  0  0  0  0
    5.5395  -11.3440    0.0000 C   0  0  0  0  0  0  0  0  0  0  0  0
    4.8257  -11.7544    0.0000 C   0  0  0  0  0  0  0  0  0  0  0  0
    4.1119  -11.3440    0.0000 C   0  0  0  0  0  0  0  0  0  0  0  0
    3.4024  -11.7544    0.0000 C   0  0  0  0  0  0  0  0  0  0  0  0
    5.5438  -12.9940    0.0000 C   0  0  0  0  0  0  0  0  0  0  0  0
    5.5438  -13.8188    0.0000 C   0  0  0  0  0  0  0  0  0  0  0  0
    6.2614  -14.2335    0.0000 C   0  0  0  0  0  0  0  0  0  0  0  0
    6.2614  -12.5793    0.0000 C   0  0  0  0  0  0  0  0  0  0  0  0
    9.1086  -14.2292    0.0000 O   0  0  0  0  0  0  0  0  0  0  0  0
    8.9804  -12.3998    0.0000 O   0  0  0  0  0  0  0  0  0  0  0  0
 11 10  1  0  0  0  0
  1  2  1  0  0  0  0
 12 13  1  0  0  0  0
  3  4  2  0  0  0  0
 13 14  1  0  0  0  0
  4  5  1  0  0  0  0
 14 15  1  0  0  0  0
  5  1  1  0  0  0  0
 15 16  1  0  0  0  0
 16 10  1  0  0  0  0
  6  7  1  0  0  0  0
  7  8  2  0  0  0  0
  8  9  1  0  0  0  0
 10  6  2  0  0  0  0
 17 18  1  0  0  0  0
 18 19  2  0  0  0  0
 19  4  1  0  0  0  0
  3 20  1  0  0  0  0
 20 17  2  0  0  0  0
 20 12  1  0  0  0  0
  2  3  1  0  0  0  0
  1 21  2  0  0  0  0
  9 11  2  0  0  0  0
  2 22  2  0  0  0  0
M  END

>  <ACTIVITY>
5.00
$$$$
7013

  Mrv0541 05041708522D          

 37 39  0  0  1  0            999 V2000
    6.7952   -5.2364    0.0000 N   0  0  0  0  0  0  0  0  0  0  0  0
    4.6261   -8.1991    0.0000 C   0  0  2  0  0  0  0  0  0  0  0  0
    6.0797   -5.6471    0.0000 C   0  0  0  0  0  0  0  0  0  0  0  0
    5.3608   -7.7016    0.0000 C   0  0  0  0  0  0  0  0  0  0  0  0
    4.6261   -9.0206    0.0000 C   0  0  2  0  0  0  0  0  0  0  0  0
    6.0762   -6.4651    0.0000 C   0  0  1  0  0  0  0  0  0  0  0  0
    5.3608   -6.8758    0.0000 N   0  0  0  0  0  0  0  0  0  0  0  0
    6.0762   -8.1124    0.0000 O   0  0  0  0  0  0  0  0  0  0  0  0
    3.9106   -9.4278    0.0000 C   0  0  0  0  0  0  0  0  0  0  0  0
    5.3379   -9.4349    0.0000 C   0  0  0  0  0  0  0  0  0  0  0  0
    6.7880   -6.8794    0.0000 C   0  0  0  0  0  0  0  0  0  0  0  0
    3.9106  -10.2571    0.0000 C   0  0  0  0  0  0  0  0  0  0  0  0
    7.5035   -6.4651    0.0000 C   0  0  0  0  0  0  0  0  0  0  0  0
    8.2188   -6.8758    0.0000 C   0  0  0  0  0  0  0  0  0  0  0  0
    7.5035   -5.6400    0.0000 C   0  0  0  0  0  0  0  0  0  0  0  0
    8.9307   -6.4651    0.0000 C   0  0  0  0  0  0  0  0  0  0  0  0
    8.2152   -5.2293    0.0000 C   0  0  0  0  0  0  0  0  0  0  0  0
    8.9307   -5.6400    0.0000 C   0  0  0  0  0  0  0  0  0  0  0  0
    5.3379   -8.6134    0.0000 H   0  0  0  0  0  0  0  0  0  0  0  0
    4.3506   -5.1103    0.0000 C   0  0  0  0  0  0  0  0  0  0  0  0
    3.6317   -4.6960    0.0000 C   0  0  0  0  0  0  0  0  0  0  0  0
    5.0589   -4.6960    0.0000 C   0  0  0  0  0  0  0  0  0  0  0  0
    4.3400   -5.9353    0.0000 C   0  0  0  0  0  0  0  0  0  0  0  0
    3.6317   -3.8710    0.0000 C   0  0  0  0  0  0  0  0  0  0  0  0
    2.9162   -4.2852    0.0000 O   0  0  0  0  0  0  0  0  0  0  0  0
    5.0625   -3.8710    0.0000 C   0  0  0  0  0  0  0  0  0  0  0  0
    3.5399   -6.1517    0.0000 C   0  0  1  0  0  0  0  0  0  0  0  0
    4.3506   -3.4559    0.0000 C   0  0  0  0  0  0  0  0  0  0  0  0
    2.2044   -4.6960    0.0000 C   0  0  0  0  0  0  0  0  0  0  0  0
    5.7814   -3.4559    0.0000 C   0  0  0  0  0  0  0  0  0  0  0  0
    3.3198   -6.9483    0.0000 C   0  0  0  0  0  0  0  0  0  0  0  0
    2.8208   -5.7330    0.0000 N   0  0  0  0  0  0  0  0  0  0  0  0
    6.8030   -4.0544    0.0000 C   0  0  0  0  0  0  0  0  0  0  0  0
    3.6489   -7.7375    0.0000 N   0  0  0  0  0  0  0  0  0  0  0  0
    2.5197   -7.1568    0.0000 O   0  0  0  0  0  0  0  0  0  0  0  0
    2.1054   -6.1482    0.0000 C   0  0  0  0  0  0  0  0  0  0  0  0
    5.3650   -5.2320    0.0000 O   0  0  0  0  0  0  0  0  0  0  0  0
 17 18  1  0  0  0  0
  2 19  1  1  0  0  0
  1  3  1  0  0  0  0
  2  4  1  0  0  0  0
  2  5  1  0  0  0  0
  3  6  1  0  0  0  0
  4  7  1  0  0  0  0
  4  8  2  0  0  0  0
  5  9  1  0  0  0  0
  5 10  1  1  0  0  0
  6 11  1  6  0  0  0
  9 12  1  0  0  0  0
 11 13  1  0  0  0  0
 13 14  2  0  0  0  0
 13 15  1  0  0  0  0
 14 16  1  0  0  0  0
 15 17  2  0  0  0  0
 16 18  2  0  0  0  0
 20 21  2  0  0  0  0
 20 22  1  0  0  0  0
 20 23  1  0  0  0  0
 21 24  1  0  0  0  0
 21 25  1  0  0  0  0
 22 26  2  0  0  0  0
 23 27  1  0  0  0  0
 24 28  2  0  0  0  0
 25 29  1  0  0  0  0
 26 30  1  0  0  0  0
 27 31  1  0  0  0  0
 27 32  1  1  0  0  0
 30 33  2  0  0  0  0
 31 34  1  0  0  0  0
 31 35  2  0  0  0  0
 32 36  1  0  0  0  0
 26 28  1  0  0  0  0
 33  1  1  0  0  0  0
  6  7  1  0  0  0  0
  3 37  2  0  0  0  0
  2 34  1  0  0  0  0
M  END

>  <ACTIVITY>
5.00
$$$$
7751

  Mrv0541 05041708522D          

 61 63  0  0  1  0            999 V2000
    4.1578   -8.0959    0.0000 C   0  0  2  0  0  0  0  0  0  0  0  0
    4.8698   -8.5042    0.0000 C   0  0  0  0  0  0  0  0  0  0  0  0
    5.5819   -8.0959    0.0000 C   0  0  1  0  0  0  0  0  0  0  0  0
    5.5819   -7.2709    0.0000 O   0  0  0  0  0  0  0  0  0  0  0  0
    2.7338   -7.2709    0.0000 C   0  0  0  0  0  0  0  0  0  0  0  0
    2.7338   -8.0959    0.0000 C   0  0  0  0  0  0  0  0  0  0  0  0
    3.4458   -8.5042    0.0000 C   0  0  1  0  0  0  0  0  0  0  0  0
    4.1578   -7.2709    0.0000 O   0  0  0  0  0  0  0  0  0  0  0  0
    3.4458   -6.8542    0.0000 C   0  0  1  0  0  0  0  0  0  0  0  0
    0.6583   -1.9209    0.0000 C   0  0  0  0  0  0  0  0  0  0  0  0
    1.3703   -1.5042    0.0000 C   0  0  1  0  0  0  0  0  0  0  0  0
    0.6583   -2.7459    0.0000 C   0  0  0  0  0  0  0  0  0  0  0  0
   -0.0474   -3.1560    0.0000 C   0  0  0  0  0  0  0  0  0  0  0  0
   -0.0473   -3.9762    0.0000 C   0  0  0  0  0  0  0  0  0  0  0  0
    0.6607   -4.3841    0.0000 C   0  0  0  0  0  0  0  0  0  0  0  0
    0.6589   -5.2052    0.0000 C   0  0  2  0  0  0  0  0  0  0  0  0
    1.3715   -5.6212    0.0000 C   0  0  0  0  0  0  0  0  0  0  0  0
    2.0823   -1.9209    0.0000 C   0  0  2  0  0  0  0  0  0  0  0  0
    2.7946   -1.5091    0.0000 C   0  0  2  0  0  0  0  0  0  0  0  0
    3.5079   -1.9269    0.0000 C   0  0  0  0  0  0  0  0  0  0  0  0
    4.2225   -1.5142    0.0000 C   0  0  1  0  0  0  0  0  0  0  0  0
    4.9378   -1.9335    0.0000 C   0  0  2  0  0  0  0  0  0  0  0  0
    6.3706   -1.9415    0.0000 C   0  0  0  0  0  0  0  0  0  0  0  0
    5.6543   -1.5206    0.0000 C   0  0  1  0  0  0  0  0  0  0  0  0
    6.3660   -2.7707    0.0000 C   0  0  1  0  0  0  0  0  0  0  0  0
    7.0661   -4.0201    0.0000 C   0  0  1  0  0  0  0  0  0  0  0  0
    7.0785   -3.1897    0.0000 C   0  0  2  0  0  0  0  0  0  0  0  0
    6.3431   -4.4253    0.0000 C   0  0  0  0  0  0  0  0  0  0  0  0
    5.6030   -5.6502    0.0000 C   0  0  0  0  0  0  0  0  0  0  0  0
    6.3306   -5.2511    0.0000 C   0  0  0  0  0  0  0  0  0  0  0  0
    4.8941   -5.2219    0.0000 O   0  0  0  0  0  0  0  0  0  0  0  0
    4.1706   -5.6221    0.0000 C   0  0  1  0  0  0  0  0  0  0  0  0
    3.4618   -5.1887    0.0000 C   0  0  2  0  0  0  0  0  0  0  0  0
    2.0244   -5.1519    0.0000 C   0  0  0  0  0  0  0  0  0  0  0  0
    2.7347   -5.5886    0.0000 C   0  0  1  0  0  0  0  0  0  0  0  0
    1.3625   -0.6792    0.0000 C   0  0  0  0  0  0  0  0  0  0  0  0
    2.0750   -2.7459    0.0000 O   0  0  0  0  0  0  0  0  0  0  0  0
    3.3750   -0.9209    0.0000 C   0  0  0  0  0  0  0  0  0  0  0  0
    2.2041   -0.9209    0.0000 O   0  0  0  0  0  0  0  0  0  0  0  0
    3.5000   -2.7500    0.0000 O   0  0  0  0  0  0  0  0  0  0  0  0
    4.2166   -0.6875    0.0000 C   0  0  0  0  0  0  0  0  0  0  0  0
    4.9333   -2.7584    0.0000 O   0  0  0  0  0  0  0  0  0  0  0  0
    5.6500   -0.6917    0.0000 C   0  0  0  0  0  0  0  0  0  0  0  0
    7.0791   -1.5209    0.0000 O   0  0  0  0  0  0  0  0  0  0  0  0
    5.6458   -3.1750    0.0000 C   0  0  0  0  0  0  0  0  0  0  0  0
    7.7875   -2.7709    0.0000 O   0  0  0  0  0  0  0  0  0  0  0  0
    7.7750   -4.4292    0.0000 C   0  0  0  0  0  0  0  0  0  0  0  0
    5.5958   -6.4750    0.0000 O   0  0  0  0  0  0  0  0  0  0  0  0
    4.1875   -4.7625    0.0000 H   0  0  0  0  0  0  0  0  0  0  0  0
    3.4541   -4.3625    0.0000 C   0  0  0  0  0  0  0  0  0  0  0  0
    2.7291   -4.7625    0.0000 H   0  0  0  0  0  0  0  0  0  0  0  0
    0.6541   -6.0292    0.0000 H   0  0  0  0  0  0  0  0  0  0  0  0
   -0.0584   -5.6125    0.0000 C   0  0  0  0  0  0  0  0  0  0  0  0
   -0.7750   -5.2000    0.0000 C   0  0  0  0  0  0  0  0  0  0  0  0
    4.1625   -6.4459    0.0000 C   0  0  1  0  0  0  0  0  0  0  0  0
    4.8750   -6.8584    0.0000 C   0  0  0  0  0  0  0  0  0  0  0  0
    2.7291   -6.4417    0.0000 O   0  0  0  0  0  0  0  0  0  0  0  0
    3.4416   -9.3292    0.0000 C   0  0  0  0  0  0  0  0  0  0  0  0
    4.1500   -8.9209    0.0000 H   0  0  0  0  0  0  0  0  0  0  0  0
    6.2916   -8.5084    0.0000 C   0  0  0  0  0  0  0  0  0  0  0  0
    2.0166   -6.8584    0.0000 O   0  0  0  0  0  0  0  0  0  0  0  0
 29 30  1  0  0  0  0
  5  9  1  0  0  0  0
  6  7  1  0  0  0  0
 31 32  1  0  0  0  0
 33 32  1  0  0  0  0
  7  1  1  0  0  0  0
 15 16  1  0  0  0  0
 16 17  1  0  0  0  0
 33 35  1  0  0  0  0
 34 35  1  0  0  0  0
 17 34  1  0  0  0  0
 11 36  1  6  0  0  0
  1  8  1  0  0  0  0
 18 37  1  6  0  0  0
  9  8  1  1  0  0  0
 19 38  1  1  0  0  0
 18 19  1  0  0  0  0
 19 39  1  6  0  0  0
 20 19  1  0  0  0  0
 20 40  2  0  0  0  0
 10 12  1  0  0  0  0
 21 41  1  6  0  0  0
 22 42  1  6  0  0  0
 20 21  1  0  0  0  0
 24 43  1  6  0  0  0
 22 21  1  0  0  0  0
 23 44  2  0  0  0  0
  1  2  1  0  0  0  0
 25 45  1  1  0  0  0
 10 11  1  0  0  0  0
 27 46  1  1  0  0  0
 18 11  1  0  0  0  0
 26 47  1  6  0  0  0
 22 24  1  0  0  0  0
 29 48  2  0  0  0  0
 25 23  1  0  0  0  0
 32 49  1  1  0  0  0
 23 24  1  0  0  0  0
 33 50  1  6  0  0  0
  2  3  1  0  0  0  0
 35 51  1  1  0  0  0
  3  4  1  1  0  0  0
 16 52  1  1  0  0  0
  5  6  1  0  0  0  0
 16 53  1  0  0  0  0
 25 27  1  0  0  0  0
 53 54  1  0  0  0  0
 28 26  1  0  0  0  0
 32 55  1  0  0  0  0
 26 27  1  0  0  0  0
 55 56  1  1  0  0  0
 55  9  1  0  0  0  0
 12 13  2  0  0  0  0
  9 57  1  0  0  0  0
 57 35  1  0  0  0  0
 13 14  1  0  0  0  0
  7 58  1  6  0  0  0
 14 15  2  0  0  0  0
  1 59  1  1  0  0  0
 28 30  2  0  0  0  0
  3 60  1  0  0  0  0
 31 29  1  0  0  0  0
  5 61  2  0  0  0  0
M  END

>  <ACTIVITY>
5.00
$$$$
8194

  Mrv0541 05041708522D          

 50 55  0  0  0  0            999 V2000
    2.0850  -14.0349    0.0000 C   0  0  1  0  0  0  0  0  0  0  0  0
    2.0830  -14.8574    0.0000 C   0  0  1  0  0  0  0  0  0  0  0  0
    1.3677  -13.6206    0.0000 O   0  0  0  0  0  0  0  0  0  0  0  0
    1.3725  -15.2707    0.0000 C   0  0  2  0  0  0  0  0  0  0  0  0
    2.8004  -15.2716    0.0000 O   0  0  0  0  0  0  0  0  0  0  0  0
    0.6495  -14.0335    0.0000 C   0  0  0  0  0  0  0  0  0  0  0  0
    0.6533  -14.8594    0.0000 C   0  0  1  0  0  0  0  0  0  0  0  0
    1.3687  -16.0962    0.0000 O   0  0  0  0  0  0  0  0  0  0  0  0
   -0.0619  -15.2740    0.0000 O   0  0  0  0  0  0  0  0  0  0  0  0
    7.0860  -11.9916    0.0000 C   0  0  2  0  0  0  0  0  0  0  0  0
    7.0962  -11.1701    0.0000 C   0  0  0  0  0  0  0  0  0  0  0  0
    6.3779  -12.4007    0.0000 C   0  0  1  0  0  0  0  0  0  0  0  0
    7.7940  -12.4145    0.0000 C   0  0  0  0  0  0  0  0  0  0  0  0
    7.0791  -12.8132    0.0000 C   0  0  0  0  0  0  0  0  0  0  0  0
    7.8147  -10.7679    0.0000 C   0  0  1  0  0  0  0  0  0  0  0  0
    6.3882  -10.7541    0.0000 C   0  0  0  0  0  0  0  0  0  0  0  0
    5.6663  -11.9813    0.0000 C   0  0  2  0  0  0  0  0  0  0  0  0
    6.3779  -13.2257    0.0000 C   0  0  0  0  0  0  0  0  0  0  0  0
    6.3675  -11.5722    0.0000 C   0  0  0  0  0  0  0  0  0  0  0  0
    8.5125  -12.0089    0.0000 C   0  0  0  0  0  0  0  0  0  0  0  0
    8.5194  -11.1872    0.0000 C   0  0  1  0  0  0  0  0  0  0  0  0
    7.8250   -9.9497    0.0000 C   0  0  0  0  0  0  0  0  0  0  0  0
    5.6732  -11.1563    0.0000 C   0  0  0  0  0  0  0  0  0  0  0  0
    4.9479  -12.3938    0.0000 C   0  0  2  0  0  0  0  0  0  0  0  0
    5.6595  -13.6347    0.0000 C   0  0  0  0  0  0  0  0  0  0  0  0
    9.2378  -10.7885    0.0000 C   0  0  0  0  0  0  0  0  0  0  0  0
    9.2309  -11.5997    0.0000 C   0  0  0  0  0  0  0  0  0  0  0  0
    8.5435   -9.5441    0.0000 C   0  0  2  0  0  0  0  0  0  0  0  0
    4.9444  -13.2222    0.0000 C   0  0  1  0  0  0  0  0  0  0  0  0
    4.2329  -11.9779    0.0000 C   0  0  0  0  0  0  0  0  0  0  0  0
    4.9410  -11.5688    0.0000 C   0  0  0  0  0  0  0  0  0  0  0  0
    9.2482   -9.9670    0.0000 C   0  0  0  0  0  0  0  0  0  0  0  0
    9.9460  -11.1804    0.0000 O   0  0  0  0  0  0  0  0  0  0  0  0
    9.2275  -12.4282    0.0000 O   0  0  0  0  0  0  0  0  0  0  0  0
    4.2329  -13.6313    0.0000 C   0  0  1  0  0  0  0  0  0  0  0  0
    3.5144  -12.3938    0.0000 C   0  0  1  0  0  0  0  0  0  0  0  0
    3.5144  -13.2222    0.0000 C   0  0  2  0  0  0  0  0  0  0  0  0
    4.4426  -14.4288    0.0000 C   0  0  0  0  0  0  0  0  0  0  0  0
    3.8101  -14.3463    0.0000 C   0  0  0  0  0  0  0  0  0  0  0  0
    2.7995  -11.9779    0.0000 O   0  0  0  0  0  0  0  0  0  0  0  0
    2.7995  -13.6313    0.0000 O   0  0  0  0  0  0  0  0  0  0  0  0
    7.8078  -11.5895    0.0000 H   0  0  0  0  0  0  0  0  0  0  0  0
    5.6595  -12.8029    0.0000 H   0  0  0  0  0  0  0  0  0  0  0  0
    4.9375  -14.0437    0.0000 H   0  0  0  0  0  0  0  0  0  0  0  0
    8.9468   -8.8263    0.0000 C   0  0  0  0  0  0  0  0  0  0  0  0
    8.1244   -8.8263    0.0000 C   0  0  0  0  0  0  0  0  0  0  0  0
    8.7308   -8.0288    0.0000 O   0  0  0  0  0  0  0  0  0  0  0  0
    9.7692   -8.8263    0.0000 O   0  0  0  0  0  0  0  0  0  0  0  0
   10.1762   -9.5365    0.0000 C   0  0  0  0  0  0  0  0  0  0  0  0
    4.8472  -15.1356    0.0000 O   0  0  0  0  0  0  0  0  0  0  0  0
  1  2  1  0  0  0  0
  1  3  1  0  0  0  0
  2  4  1  0  0  0  0
  2  5  1  6  0  0  0
  3  6  1  0  0  0  0
 10 11  1  0  0  0  0
 10 12  1  0  0  0  0
 10 13  1  0  0  0  0
 10 14  1  6  0  0  0
 11 15  1  0  0  0  0
 11 16  2  0  0  0  0
 12 17  1  0  0  0  0
 12 18  1  0  0  0  0
 12 19  1  1  0  0  0
 13 20  1  0  0  0  0
 15 21  1  0  0  0  0
 15 22  1  0  0  0  0
 16 23  1  0  0  0  0
 17 24  1  0  0  0  0
 18 25  1  0  0  0  0
 21 26  1  0  0  0  0
 21 27  1  1  0  0  0
 22 28  1  0  0  0  0
 24 29  1  0  0  0  0
 24 30  1  0  0  0  0
 24 31  1  1  0  0  0
 26 32  1  0  0  0  0
 27 33  1  0  0  0  0
 27 34  2  0  0  0  0
 29 35  1  0  0  0  0
 30 36  1  0  0  0  0
 35 37  1  0  0  0  0
 35 38  1  6  0  0  0
 35 39  1  1  0  0  0
 36 40  1  1  0  0  0
 37 41  1  1  0  0  0
 17 23  1  0  0  0  0
 20 21  1  0  0  0  0
 25 29  1  0  0  0  0
 28 32  1  0  0  0  0
 36 37  1  0  0  0  0
 15 42  1  1  0  0  0
 17 43  1  6  0  0  0
 29 44  1  6  0  0  0
  1 41  1  1  0  0  0
  4  7  1  0  0  0  0
 28 45  1  1  0  0  0
  4  8  1  1  0  0  0
 28 46  1  6  0  0  0
  7  9  1  6  0  0  0
 45 47  2  0  0  0  0
  6  7  1  0  0  0  0
 45 48  1  0  0  0  0
 48 49  1  0  0  0  0
 38 50  1  0  0  0  0
M  END

>  <ACTIVITY>
5.00
$$$$
8234
 
  Mrv0541 05041708522D          
 
 37 40  0  0  1  0            999 V2000
   16.5923   -9.8329    0.0000 C   0  0  0  0  0  0  0  0  0  0  0  0
   16.7711   -9.0246    0.0000 C   0  0  1  0  0  0  0  0  0  0  0  0
   17.3078  -10.2526    0.0000 C   0  0  0  0  0  0  0  0  0  0  0  0
   15.8734  -10.2492    0.0000 C   0  0  0  0  0  0  0  0  0  0  0  0
   17.5967   -8.9421    0.0000 C   0  0  2  0  0  0  0  0  0  0  0  0
   17.3078  -11.0746    0.0000 C   0  0  0  0  0  0  0  0  0  0  0  0
   17.9269   -9.7023    0.0000 O   0  0  0  0  0  0  0  0  0  0  0  0
   15.8734  -11.0746    0.0000 C   0  0  0  0  0  0  0  0  0  0  0  0
   15.1579   -9.8329    0.0000 O   0  0  0  0  0  0  0  0  0  0  0  0
   18.0129   -8.2335    0.0000 C   0  0  0  0  0  0  0  0  0  0  0  0
   16.5923  -11.4874    0.0000 C   0  0  0  0  0  0  0  0  0  0  0  0
   18.0198  -11.4874    0.0000 C   0  0  0  0  0  0  0  0  0  0  0  0
   14.4425  -10.2423    0.0000 C   0  0  0  0  0  0  0  0  0  0  0  0
   18.8350   -8.2404    0.0000 C   0  0  0  0  0  0  0  0  0  0  0  0
   17.6070   -7.5180    0.0000 C   0  0  0  0  0  0  0  0  0  0  0  0
   18.4601   -7.5077    0.0000 O   0  0  0  0  0  0  0  0  0  0  0  0
   16.5923  -12.3096    0.0000 O   0  0  0  0  0  0  0  0  0  0  0  0
   18.0198  -12.3096    0.0000 O   0  0  0  0  0  0  0  0  0  0  0  0
   16.0583   -8.6089    0.0000 C   0  0  0  0  0  0  0  0  0  0  0  0
   15.3471   -9.0246    0.0000 C   0  0  0  0  0  0  0  0  0  0  0  0
   16.0592   -7.7897    0.0000 C   0  0  0  0  0  0  0  0  0  0  0  0
   14.6316   -8.6119    0.0000 C   0  0  0  0  0  0  0  0  0  0  0  0
   15.3471   -7.3769    0.0000 C   0  0  0  0  0  0  0  0  0  0  0  0
   16.7711   -7.3769    0.0000 O   0  0  0  0  0  0  0  0  0  0  0  0
   14.6316   -7.7897    0.0000 C   0  0  0  0  0  0  0  0  0  0  0  0
   13.9196   -9.0246    0.0000 C   0  0  0  0  0  0  0  0  0  0  0  0
   13.2075   -8.6119    0.0000 O   0  0  0  0  0  0  0  0  0  0  0  0
   13.9196   -9.7229    0.0000 O   0  0  0  0  0  0  0  0  0  0  0  0
   12.4955   -9.0246    0.0000 C   0  0  0  0  0  0  0  0  0  0  0  0
   18.7484  -11.0680    0.0000 C   0  0  0  0  0  0  0  0  0  0  0  0
   19.4416  -11.4693    0.0000 C   0  0  0  0  0  0  0  0  0  0  0  0
   20.1479  -11.0625    0.0000 C   0  0  0  0  0  0  0  0  0  0  0  0
   20.8458  -11.4665    0.0000 C   0  0  0  0  0  0  0  0  0  0  0  0
   21.5607  -11.0548    0.0000 C   0  0  0  0  0  0  0  0  0  0  0  0
   21.5617  -10.2298    0.0000 C   0  0  0  0  0  0  0  0  0  0  0  0
   20.8637   -9.8258    0.0000 C   0  0  0  0  0  0  0  0  0  0  0  0
   20.1488  -10.2375    0.0000 C   0  0  0  0  0  0  0  0  0  0  0  0
  6 12  1  0  0  0  0
  9 13  1  0  0  0  0
 10 14  1  0  0  0  0
 10 15  1  0  0  0  0
 10 16  1  0  0  0  0
 11 17  1  0  0  0  0
 12 18  2  0  0  0  0
  5  7  1  0  0  0  0
  8 11  2  0  0  0  0
  2 19  1  6  0  0  0
  1  2  1  0  0  0  0
  1  3  1  0  0  0  0
  1  4  2  0  0  0  0
  2  5  1  0  0  0  0
  3  6  2  0  0  0  0
  3  7  1  0  0  0  0
  4  8  1  0  0  0  0
  4  9  1  0  0  0  0
  5 10  1  1  0  0  0
  6 11  1  0  0  0  0
 19 20  1  0  0  0  0
 19 21  2  0  0  0  0
 20 22  2  0  0  0  0
 21 23  1  0  0  0  0
 21 24  1  0  0  0  0
 22 25  1  0  0  0  0
 22 26  1  0  0  0  0
 26 27  1  0  0  0  0
 26 28  2  0  0  0  0
 27 29  1  0  0  0  0
 23 25  2  0  0  0  0
 12 30  1  0  0  0  0
 30 31  1  0  0  0  0
 31 32  1  0  0  0  0
 32 33  2  0  0  0  0
 33 34  1  0  0  0  0
 34 35  2  0  0  0  0
 35 36  1  0  0  0  0
 36 37  2  0  0  0  0
 32 37  1  0  0  0  0
M  END

>  <ACTIVITY>
5.00
$$$$
8265

  Mrv0541 05041708522D          

 28 32  0  0  1  0            999 V2000
    8.8510   -9.2929    0.0000 C   0  0  1  0  0  0  0  0  0  0  0  0
    8.8474   -8.4754    0.0000 C   0  0  0  0  0  0  0  0  0  0  0  0
    8.2283   -7.9280    0.0000 C   0  0  0  0  0  0  0  0  0  0  0  0
    9.5543   -8.0561    0.0000 C   0  0  0  0  0  0  0  0  0  0  0  0
    8.5633   -7.1785    0.0000 C   0  0  0  0  0  0  0  0  0  0  0  0
    9.3765   -7.2643    0.0000 O   0  0  0  0  0  0  0  0  0  0  0  0
    9.1474  -10.6532    0.0000 C   0  0  1  0  0  0  0  0  0  0  0  0
    9.8881  -10.2184    0.0000 C   0  0  0  0  0  0  0  0  0  0  0  0
    9.7078   -9.3773    0.0000 O   0  0  0  0  0  0  0  0  0  0  0  0
    8.5043  -10.0799    0.0000 C   0  0  0  0  0  0  0  0  0  0  0  0
    8.4323  -11.0609    0.0000 C   0  0  2  0  0  0  0  0  0  0  0  0
    9.8611  -11.0645    0.0000 C   0  0  0  0  0  0  0  0  0  0  0  0
    8.4359  -11.8855    0.0000 C   0  0  1  0  0  0  0  0  0  0  0  0
    7.7176  -10.6487    0.0000 C   0  0  0  0  0  0  0  0  0  0  0  0
    9.8575  -11.8925    0.0000 C   0  0  0  0  0  0  0  0  0  0  0  0
   10.5714  -10.6594    0.0000 C   0  0  0  0  0  0  0  0  0  0  0  0
    9.1463  -12.2977    0.0000 C   0  0  1  0  0  0  0  0  0  0  0  0
    7.7176  -12.2977    0.0000 C   0  0  0  0  0  0  0  0  0  0  0  0
    7.0029  -11.0609    0.0000 C   0  0  0  0  0  0  0  0  0  0  0  0
    7.0029  -11.8855    0.0000 C   0  0  0  0  0  0  0  0  0  0  0  0
    8.0731  -10.2646    0.0000 H   0  0  0  0  0  0  0  0  0  0  0  0
    7.9372  -13.1318    0.0000 C   0  0  0  0  0  0  0  0  0  0  0  0
    8.9171  -13.1318    0.0000 O   0  0  0  0  0  0  0  0  0  0  0  0
   10.6329   -9.7815    0.0000 O   0  0  0  0  0  0  0  0  0  0  0  0
    7.4251  -13.7949    0.0000 O   0  0  0  0  0  0  0  0  0  0  0  0
    9.7387  -12.8923    0.0000 H   0  0  0  0  0  0  0  0  0  0  0  0
    9.1568  -11.4588    0.0000 C   0  0  0  0  0  0  0  0  0  0  0  0
   10.2950  -11.4588    0.0000 O   0  0  0  0  0  0  0  0  0  0  0  0
  2  4  2  0  0  0  0
  7  8  1  6  0  0  0
  8  9  1  0  0  0  0
  9  1  1  0  0  0  0
  1 10  1  0  0  0  0
  7 11  1  0  0  0  0
  7 12  1  0  0  0  0
 11 13  1  0  0  0  0
 11 14  1  0  0  0  0
 12 15  1  0  0  0  0
 12 16  2  0  0  0  0
 13 17  1  0  0  0  0
 13 18  1  0  0  0  0
 14 19  1  0  0  0  0
 18 20  2  0  0  0  0
 15 17  1  0  0  0  0
 19 20  1  0  0  0  0
 11 21  1  1  0  0  0
  7 10  1  1  0  0  0
 18 22  1  0  0  0  0
  3  5  2  0  0  0  0
 17 23  1  0  0  0  0
 22 23  1  0  0  0  0
  4  6  1  0  0  0  0
  8 24  2  0  0  0  0
 22 25  2  0  0  0  0
  5  6  1  0  0  0  0
 17 26  1  6  0  0  0
  1  2  1  1  0  0  0
 13 27  1  6  0  0  0
  2  3  1  0  0  0  0
 27 28  1  0  0  0  0
M  END

>  <ACTIVITY>
5.00
$$$$
8278

  Mrv0541 05041708522D          

 33 38  0  0  1  0            999 V2000
    5.8719  -12.1353    0.0000 C   0  0  2  0  0  0  0  0  0  0  0  0
    5.8719  -12.9583    0.0000 C   0  0  2  0  0  0  0  0  0  0  0  0
    5.1602  -11.7170    0.0000 C   0  0  0  0  0  0  0  0  0  0  0  0
    6.5835  -12.5433    0.0000 O   0  0  0  0  0  0  0  0  0  0  0  0
    6.5904  -11.7309    0.0000 C   0  0  2  0  0  0  0  0  0  0  0  0
    5.1602  -13.3628    0.0000 C   0  0  2  0  0  0  0  0  0  0  0  0
    4.4494  -12.1283    0.0000 C   0  0  2  0  0  0  0  0  0  0  0  0
    5.1672  -10.8974    0.0000 C   0  0  0  0  0  0  0  0  0  0  0  0
    6.5973  -10.9079    0.0000 O   0  0  0  0  0  0  0  0  0  0  0  0
    4.4530  -12.9514    0.0000 C   0  0  2  0  0  0  0  0  0  0  0  0
    3.7343  -11.7170    0.0000 C   0  0  2  0  0  0  0  0  0  0  0  0
    4.4383  -11.3020    0.0000 C   0  0  0  0  0  0  0  0  0  0  0  0
    5.8858  -10.4894    0.0000 C   0  0  0  0  0  0  0  0  0  0  0  0
    3.7343  -13.3628    0.0000 C   0  0  1  0  0  0  0  0  0  0  0  0
    3.0228  -12.1283    0.0000 C   0  0  1  0  0  0  0  0  0  0  0  0
    3.0193  -11.3020    0.0000 O   0  0  0  0  0  0  0  0  0  0  0  0
    5.8928   -9.6630    0.0000 O   0  0  0  0  0  0  0  0  0  0  0  0
    3.0228  -12.9514    0.0000 C   0  0  2  0  0  0  0  0  0  0  0  0
    3.0159  -13.7666    0.0000 C   0  0  0  0  0  0  0  0  0  0  0  0
    2.1929  -12.9514    0.0000 O   0  0  0  0  0  0  0  0  0  0  0  0
    5.8858  -13.7813    0.0000 H   0  0  0  0  0  0  0  0  0  0  0  0
    4.4494  -13.7918    0.0000 H   0  0  0  0  0  0  0  0  0  0  0  0
    3.7309  -10.8765    0.0000 H   0  0  0  0  0  0  0  0  0  0  0  0
    2.2904  -11.7030    0.0000 H   0  0  0  0  0  0  0  0  0  0  0  0
    4.9381  -14.1665    0.0000 O   0  0  0  0  0  0  0  0  0  0  0  0
    3.9454  -14.1665    0.0000 C   0  0  0  0  0  0  0  0  0  0  0  0
    3.4330  -14.8348    0.0000 O   0  0  0  0  0  0  0  0  0  0  0  0
    7.3104  -11.3021    0.0000 H   0  0  0  0  0  0  0  0  0  0  0  0
    7.3104  -12.1475    0.0000 C   0  0  1  0  0  0  0  0  0  0  0  0
    8.0381  -11.7270    0.0000 C   0  0  0  0  0  0  0  0  0  0  0  0
    8.7657  -12.1434    0.0000 O   0  0  0  0  0  0  0  0  0  0  0  0
    7.3062  -12.9888    0.0000 O   0  0  0  0  0  0  0  0  0  0  0  0
    8.0381  -12.5682    0.0000 C   0  0  0  0  0  0  0  0  0  0  0  0
  6 10  1  0  0  0  0
  7 11  1  0  0  0  0
  7 12  1  1  0  0  0
  8 13  1  0  0  0  0
 10 14  1  0  0  0  0
 11 15  1  0  0  0  0
 11 16  1  0  0  0  0
 13 17  2  0  0  0  0
 14 18  1  0  0  0  0
 14 19  1  6  0  0  0
 18 20  1  1  0  0  0
  2  4  1  6  0  0  0
  7 10  1  0  0  0  0
  9 13  1  0  0  0  0
 15 16  1  0  0  0  0
 15 18  1  0  0  0  0
  6 21  1  6  0  0  0
 10 22  1  6  0  0  0
 11 23  1  1  0  0  0
 15 24  1  1  0  0  0
  6 25  1  0  0  0  0
  1  2  1  0  0  0  0
 14 26  1  0  0  0  0
 26 25  1  0  0  0  0
  1  3  1  0  0  0  0
 26 27  2  0  0  0  0
  1  4  1  6  0  0  0
  5 28  1  1  0  0  0
  1  5  1  0  0  0  0
  5 29  1  0  0  0  0
  2  6  1  0  0  0  0
 29 30  1  0  0  0  0
  3  7  1  0  0  0  0
 30 31  1  0  0  0  0
  3  8  2  0  0  0  0
 29 32  1  1  0  0  0
  5  9  1  0  0  0  0
 29 33  1  6  0  0  0
M  END

>  <ACTIVITY>
5.00
$$$$
8595

  Mrv0541 05041708522D          

 63 69  0  0  1  0            999 V2000
   14.3889  -16.7186    0.0000 O   0  0  0  0  0  0  0  0  0  0  0  0
   15.2150  -16.3078    0.0000 C   0  0  2  0  0  0  0  0  0  0  0  0
   15.6421  -17.0586    0.0000 C   0  0  2  0  0  0  0  0  0  0  0  0
   14.9823  -17.6719    0.0000 O   0  0  0  0  0  0  0  0  0  0  0  0
   17.5266  -19.6377    0.0000 O   0  0  0  0  0  0  0  0  0  0  0  0
   18.2745  -19.2044    0.0000 C   0  0  0  0  0  0  0  0  0  0  0  0
   19.5908  -16.9654    0.0000 C   0  0  1  0  0  0  0  0  0  0  0  0
   19.5908  -15.3220    0.0000 C   0  0  1  0  0  0  0  0  0  0  0  0
   20.3030  -15.7361    0.0000 C   0  0  1  0  0  0  0  0  0  0  0  0
   21.0156  -15.3308    0.0000 C   0  0  1  0  0  0  0  0  0  0  0  0
   19.6004  -14.5025    0.0000 C   0  0  0  0  0  0  0  0  0  0  0  0
   20.3132  -14.0929    0.0000 N   0  0  0  0  0  0  0  0  0  0  0  0
   21.0227  -14.5130    0.0000 C   0  0  1  0  0  0  0  0  0  0  0  0
   21.7378  -14.0979    0.0000 C   0  0  0  0  0  0  0  0  0  0  0  0
   21.7433  -13.2804    0.0000 C   0  0  0  0  0  0  0  0  0  0  0  0
   21.0338  -12.8602    0.0000 C   0  0  1  0  0  0  0  0  0  0  0  0
   20.3187  -13.2753    0.0000 C   0  0  0  0  0  0  0  0  0  0  0  0
   18.8724  -17.3718    0.0000 O   0  0  0  0  0  0  0  0  0  0  0  0
   19.5825  -17.7871    0.0000 O   0  0  0  0  0  0  0  0  0  0  0  0
   18.8724  -14.9067    0.0000 H   0  0  0  0  0  0  0  0  0  0  0  0
   19.5825  -16.1392    0.0000 H   0  0  0  0  0  0  0  0  0  0  0  0
   20.2970  -14.9067    0.0000 H   0  0  0  0  0  0  0  0  0  0  0  0
   21.7171  -15.8892    0.0000 O   0  0  0  0  0  0  0  0  0  0  0  0
   20.2861  -16.5515    0.0000 C   0  0  1  0  0  0  0  0  0  0  0  0
   21.8064  -14.9737    0.0000 C   0  0  0  0  0  0  0  0  0  0  0  0
   21.0160  -13.6830    0.0000 H   0  0  0  0  0  0  0  0  0  0  0  0
   21.0249  -12.0353    0.0000 C   0  0  0  0  0  0  0  0  0  0  0  0
   21.0026  -16.9654    0.0000 O   0  0  0  0  0  0  0  0  0  0  0  0
   18.8769  -16.5546    0.0000 C   0  0  2  0  0  0  0  0  0  0  0  0
   18.8749  -15.7326    0.0000 C   0  0  1  0  0  0  0  0  0  0  0  0
   18.0935  -15.4781    0.0000 C   0  0  0  0  0  0  0  0  0  0  0  0
   18.0969  -16.8130    0.0000 C   0  0  1  0  0  0  0  0  0  0  0  0
   17.6117  -16.1428    0.0000 C   0  0  1  0  0  0  0  0  0  0  0  0
   16.9397  -17.6465    0.0000 C   0  0  1  0  0  0  0  0  0  0  0  0
   17.7609  -17.5603    0.0000 C   0  0  1  0  0  0  0  0  0  0  0  0
   16.4590  -16.9807    0.0000 C   0  0  1  0  0  0  0  0  0  0  0  0
   16.7983  -16.2307    0.0000 C   0  0  2  0  0  0  0  0  0  0  0  0
   16.3208  -15.5631    0.0000 C   0  0  0  0  0  0  0  0  0  0  0  0
   15.4995  -15.6409    0.0000 C   0  0  0  0  0  0  0  0  0  0  0  0
   18.2754  -15.9757    0.0000 H   0  0  0  0  0  0  0  0  0  0  0  0
   18.2654  -18.2591    0.0000 O   0  0  0  0  0  0  0  0  0  0  0  0
   19.0200  -19.6340    0.0000 C   0  0  0  0  0  0  0  0  0  0  0  0
   20.1027  -18.4601    0.0000 C   0  0  0  0  0  0  0  0  0  0  0  0
   19.5804  -19.1208    0.0000 O   0  0  0  0  0  0  0  0  0  0  0  0
   20.9645  -18.4661    0.0000 C   0  0  2  0  0  0  0  0  0  0  0  0
   21.3925  -19.2170    0.0000 C   0  0  0  0  0  0  0  0  0  0  0  0
   21.4030  -17.7212    0.0000 C   0  0  0  0  0  0  0  0  0  0  0  0
   22.2648  -17.7273    0.0000 C   0  0  0  0  0  0  0  0  0  0  0  0
   16.9621  -18.5025    0.0000 O   0  0  0  0  0  0  0  0  0  0  0  0
   16.5692  -19.1599    0.0000 C   0  0  0  0  0  0  0  0  0  0  0  0
   15.6672  -19.3409    0.0000 C   0  0  0  0  0  0  0  0  0  0  0  0
   16.7881  -19.9445    0.0000 O   0  0  0  0  0  0  0  0  0  0  0  0
   16.0703  -17.7279    0.0000 H   0  0  0  0  0  0  0  0  0  0  0  0
   15.8932  -18.6632    0.0000 O   0  0  0  0  0  0  0  0  0  0  0  0
   17.1808  -15.4969    0.0000 C   0  0  0  0  0  0  0  0  0  0  0  0
   12.8168  -16.6215    0.0000 C   0  0  2  0  0  0  0  0  0  0  0  0
   13.5602  -16.1883    0.0000 C   0  0  0  0  0  0  0  0  0  0  0  0
   13.5602  -15.3265    0.0000 O   0  0  0  0  0  0  0  0  0  0  0  0
   12.0689  -16.1883    0.0000 C   0  0  1  0  0  0  0  0  0  0  0  0
   11.3210  -16.6215    0.0000 C   0  0  0  0  0  0  0  0  0  0  0  0
   13.2544  -17.4165    0.0000 O   0  0  0  0  0  0  0  0  0  0  0  0
   12.2084  -17.3304    0.0000 C   0  0  0  0  0  0  0  0  0  0  0  0
   12.0689  -15.3041    0.0000 O   0  0  0  0  0  0  0  0  0  0  0  0
 31 33  1  0  0  0  0
 32 29  1  0  0  0  0
  2  1  1  1  0  0  0
  8 30  1  0  0  0  0
  9 24  1  0  0  0  0
 29 18  1  6  0  0  0
 32 33  1  0  0  0  0
 33 37  1  0  0  0  0
 36 34  1  0  0  0  0
 34 35  1  0  0  0  0
 35 32  1  0  0  0  0
  7 19  1  6  0  0  0
 30 20  1  6  0  0  0
  8 21  1  1  0  0  0
 24 28  1  1  0  0  0
 36 37  1  0  0  0  0
 37 38  1  0  0  0  0
 38 39  1  0  0  0  0
 39  2  1  0  0  0  0
  3 36  1  0  0  0  0
  8  9  1  0  0  0  0
 32 40  1  1  0  0  0
  9 22  1  6  0  0  0
 35 41  1  6  0  0  0
 41  6  1  0  0  0  0
  9 10  1  0  0  0  0
  6 42  1  0  0  0  0
 10 23  1  1  0  0  0
 19 43  1  0  0  0  0
 10 13  1  0  0  0  0
 43 44  2  0  0  0  0
 12 11  1  0  0  0  0
 43 45  1  0  0  0  0
 10 25  1  6  0  0  0
 45 46  1  1  0  0  0
 11  8  1  0  0  0  0
 45 47  1  0  0  0  0
 13 26  1  6  0  0  0
 47 48  1  0  0  0  0
 16 27  1  1  0  0  0
 34 49  1  6  0  0  0
 12 13  1  0  0  0  0
 49 50  1  0  0  0  0
 13 14  1  0  0  0  0
 50 51  1  0  0  0  0
 14 15  1  0  0  0  0
 50 52  2  0  0  0  0
 15 16  1  0  0  0  0
 36 53  1  1  0  0  0
 33 54  1  6  0  0  0
 16 17  1  0  0  0  0
  3 54  1  6  0  0  0
 17 12  1  0  0  0  0
 37 55  1  1  0  0  0
  3  2  1  0  0  0  0
 29  7  1  0  0  0  0
  7 24  1  0  0  0  0
 56 57  1  0  0  0  0
 57  1  1  0  0  0  0
 57 58  2  0  0  0  0
  5  6  2  0  0  0  0
 56 59  1  0  0  0  0
  3  4  1  1  0  0  0
 59 60  1  0  0  0  0
 29 30  1  0  0  0  0
 56 61  1  1  0  0  0
 30 31  1  0  0  0  0
 56 62  1  6  0  0  0
 59 63  1  1  0  0  0
M  END

>  <ACTIVITY>
5.00
$$$$
8901

  Mrv0541 05041708522D          

 84 92  0  0  0  0            999 V2000
   20.6946  -17.7258    0.0000 O   0  0  0  0  0  0  0  0  0  0  0  0
   20.6978  -18.5507    0.0000 C   0  0  2  0  0  0  0  0  0  0  0  0
   19.9865  -18.9677    0.0000 O   0  0  0  0  0  0  0  0  0  0  0  0
   21.4125  -18.9732    0.0000 C   0  0  1  0  0  0  0  0  0  0  0  0
   19.9786  -19.7926    0.0000 C   0  0  1  0  0  0  0  0  0  0  0  0
   21.4123  -19.8014    0.0000 C   0  0  2  0  0  0  0  0  0  0  0  0
   22.1351  -18.5596    0.0000 O   0  0  0  0  0  0  0  0  0  0  0  0
   20.6898  -20.2073    0.0000 C   0  0  2  0  0  0  0  0  0  0  0  0
   19.2671  -20.2061    0.0000 C   0  0  0  0  0  0  0  0  0  0  0  0
   22.1346  -20.2128    0.0000 O   0  0  0  0  0  0  0  0  0  0  0  0
   20.6896  -21.0398    0.0000 O   0  0  0  0  0  0  0  0  0  0  0  0
   18.5414  -19.7947    0.0000 O   0  0  0  0  0  0  0  0  0  0  0  0
   18.5550  -11.5317    0.0000 C   0  0  2  0  0  0  0  0  0  0  0  0
   18.5547  -12.3601    0.0000 O   0  0  0  0  0  0  0  0  0  0  0  0
   19.2740  -11.1114    0.0000 C   0  0  1  0  0  0  0  0  0  0  0  0
   19.2694  -12.7756    0.0000 C   0  0  2  0  0  0  0  0  0  0  0  0
   19.9956  -11.5296    0.0000 C   0  0  2  0  0  0  0  0  0  0  0  0
   19.2743  -10.2865    0.0000 O   0  0  0  0  0  0  0  0  0  0  0  0
   19.2726  -13.6006    0.0000 C   0  0  0  0  0  0  0  0  0  0  0  0
   19.9919  -12.3621    0.0000 C   0  0  2  0  0  0  0  0  0  0  0  0
   20.7112  -11.1203    0.0000 O   0  0  0  0  0  0  0  0  0  0  0  0
   18.5577  -14.0140    0.0000 O   0  0  0  0  0  0  0  0  0  0  0  0
   20.7141  -12.7735    0.0000 O   0  0  0  0  0  0  0  0  0  0  0  0
   18.5498  -14.8389    0.0000 C   0  0  1  0  0  0  0  0  0  0  0  0
   19.2645  -15.2537    0.0000 C   0  0  2  0  0  0  0  0  0  0  0  0
   17.8273  -15.2523    0.0000 O   0  0  0  0  0  0  0  0  0  0  0  0
   19.9835  -14.8437    0.0000 O   0  0  0  0  0  0  0  0  0  0  0  0
   19.2642  -16.0786    0.0000 C   0  0  2  0  0  0  0  0  0  0  0  0
   17.8270  -16.0773    0.0000 C   0  0  1  0  0  0  0  0  0  0  0  0
   20.6947  -15.2481    0.0000 C   0  0  2  0  0  0  0  0  0  0  0  0
   18.5452  -16.5031    0.0000 C   0  0  1  0  0  0  0  0  0  0  0  0
   19.9864  -16.4976    0.0000 O   0  0  0  0  0  0  0  0  0  0  0  0
   17.1080  -16.4942    0.0000 C   0  0  0  0  0  0  0  0  0  0  0  0
   20.6945  -16.0731    0.0000 O   0  0  0  0  0  0  0  0  0  0  0  0
   21.4172  -14.8382    0.0000 C   0  0  1  0  0  0  0  0  0  0  0  0
   18.5484  -17.3281    0.0000 O   0  0  0  0  0  0  0  0  0  0  0  0
   16.3934  -16.0828    0.0000 O   0  0  0  0  0  0  0  0  0  0  0  0
   21.4202  -16.4920    0.0000 C   0  0  2  0  0  0  0  0  0  0  0  0
   22.1284  -15.2461    0.0000 C   0  0  2  0  0  0  0  0  0  0  0  0
   21.4140  -14.0098    0.0000 O   0  0  0  0  0  0  0  0  0  0  0  0
   21.4124  -17.3204    0.0000 C   0  0  0  0  0  0  0  0  0  0  0  0
   22.1240  -16.0785    0.0000 C   0  0  2  0  0  0  0  0  0  0  0  0
   22.8508  -14.8402    0.0000 O   0  0  0  0  0  0  0  0  0  0  0  0
   22.8428  -16.4934    0.0000 O   0  0  0  0  0  0  0  0  0  0  0  0
   16.4200  -11.1241    0.0000 C   0  0  1  0  0  0  0  0  0  0  0  0
   15.7173  -10.6988    0.0000 C   0  0  2  0  0  0  0  0  0  0  0  0
   16.4125  -11.9490    0.0000 C   0  0  0  0  0  0  0  0  0  0  0  0
   17.1365  -10.7202    0.0000 C   0  0  0  0  0  0  0  0  0  0  0  0
   15.0009  -11.1096    0.0000 C   0  0  0  0  0  0  0  0  0  0  0  0
   15.7283   -9.8808    0.0000 C   0  0  0  0  0  0  0  0  0  0  0  0
   15.6994  -12.3486    0.0000 C   0  0  0  0  0  0  0  0  0  0  0  0
   17.1510   -9.8988    0.0000 C   0  0  0  0  0  0  0  0  0  0  0  0
   14.9898  -11.9344    0.0000 C   0  0  1  0  0  0  0  0  0  0  0  0
   14.2871  -10.6879    0.0000 C   0  0  0  0  0  0  0  0  0  0  0  0
   16.4414   -9.4778    0.0000 C   0  0  0  0  0  0  0  0  0  0  0  0
   14.2768  -12.3375    0.0000 C   0  0  1  0  0  0  0  0  0  0  0  0
   14.9788  -12.7559    0.0000 C   0  0  0  0  0  0  0  0  0  0  0  0
   13.5706  -11.0950    0.0000 C   0  0  0  0  0  0  0  0  0  0  0  0
   16.0272   -8.7750    0.0000 C   0  0  0  0  0  0  0  0  0  0  0  0
   16.8522   -8.7750    0.0000 C   0  0  0  0  0  0  0  0  0  0  0  0
   13.5595  -11.9234    0.0000 C   0  0  2  0  0  0  0  0  0  0  0  0
   14.2768  -13.1624    0.0000 C   0  0  0  0  0  0  0  0  0  0  0  0
   14.2623  -11.5058    0.0000 C   0  0  0  0  0  0  0  0  0  0  0  0
   12.8389  -12.3306    0.0000 C   0  0  2  0  0  0  0  0  0  0  0  0
   13.5526  -13.5808    0.0000 C   0  0  0  0  0  0  0  0  0  0  0  0
   12.8354  -13.1555    0.0000 C   0  0  1  0  0  0  0  0  0  0  0  0
   12.1258  -11.9165    0.0000 C   0  0  0  0  0  0  0  0  0  0  0  0
   12.8285  -11.5058    0.0000 C   0  0  0  0  0  0  0  0  0  0  0  0
   12.1258  -13.5731    0.0000 C   0  0  0  0  0  0  0  0  0  0  0  0
   11.4017  -12.3306    0.0000 C   0  0  0  0  0  0  0  0  0  0  0  0
   11.4017  -13.1555    0.0000 C   0  0  2  0  0  0  0  0  0  0  0  0
   11.7049  -14.2904    0.0000 C   0  0  0  0  0  0  0  0  0  0  0  0
   12.3315  -14.3766    0.0000 C   0  0  0  0  0  0  0  0  0  0  0  0
   10.6853  -13.5731    0.0000 O   0  0  0  0  0  0  0  0  0  0  0  0
    9.8528  -13.5731    0.0000 S   0  0  0  0  0  0  0  0  0  0  0  0
    9.0358  -13.5697    0.0000 O   0  0  0  0  0  0  0  0  0  0  0  0
    9.8494  -12.7483    0.0000 O   0  0  0  0  0  0  0  0  0  0  0  0
    9.8494  -14.4056    0.0000 O   0  5  0  0  0  0  0  0  0  0  0  0
   15.7139  -11.5203    0.0000 H   0  0  0  0  0  0  0  0  0  0  0  0
   13.5561  -12.7483    0.0000 H   0  0  0  0  0  0  0  0  0  0  0  0
   12.8320  -13.9804    0.0000 H   0  0  0  0  0  0  0  0  0  0  0  0
   17.1312  -11.5359    0.0000 C   0  0  0  0  0  0  0  0  0  0  0  0
   17.8431  -11.1238    0.0000 O   0  0  0  0  0  0  0  0  0  0  0  0
   17.1311  -12.3602    0.0000 O   0  0  0  0  0  0  0  0  0  0  0  0
  2  3  1  0  0  0  0
  2  4  1  0  0  0  0
  3  5  1  0  0  0  0
  4  6  1  0  0  0  0
  4  7  1  6  0  0  0
  5  8  1  0  0  0  0
  5  9  1  1  0  0  0
  6 10  1  1  0  0  0
  8 11  1  6  0  0  0
  9 12  1  0  0  0  0
  6  8  1  0  0  0  0
  2  1  1  1  0  0  0
 17 20  1  0  0  0  0
 29 31  1  0  0  0  0
 39 42  1  0  0  0  0
 13 14  1  0  0  0  0
 13 15  1  0  0  0  0
 14 16  1  0  0  0  0
 15 17  1  0  0  0  0
 15 18  1  6  0  0  0
 16 19  1  1  0  0  0
 16 20  1  0  0  0  0
 17 21  1  1  0  0  0
 19 22  1  0  0  0  0
 20 23  1  6  0  0  0
 24 22  1  1  0  0  0
 24 25  1  0  0  0  0
 24 26  1  0  0  0  0
 25 27  1  6  0  0  0
 25 28  1  0  0  0  0
 26 29  1  0  0  0  0
 30 27  1  1  0  0  0
 28 31  1  0  0  0  0
 28 32  1  1  0  0  0
 29 33  1  1  0  0  0
 30 34  1  0  0  0  0
 30 35  1  0  0  0  0
 31 36  1  6  0  0  0
 33 37  1  0  0  0  0
 34 38  1  0  0  0  0
 35 39  1  0  0  0  0
 35 40  1  6  0  0  0
 38 41  1  1  0  0  0
 38 42  1  0  0  0  0
 39 43  1  1  0  0  0
 42 44  1  6  0  0  0
 45 46  1  0  0  0  0
 45 47  1  0  0  0  0
 45 48  1  0  0  0  0
 46 49  1  0  0  0  0
 46 50  1  0  0  0  0
 47 51  1  0  0  0  0
 48 52  1  0  0  0  0
 49 53  1  0  0  0  0
 49 54  2  0  0  0  0
 50 55  1  0  0  0  0
 53 56  1  0  0  0  0
 53 57  1  6  0  0  0
 54 58  1  0  0  0  0
 55 59  1  0  0  0  0
 55 60  1  0  0  0  0
 56 61  1  0  0  0  0
 56 62  1  0  0  0  0
 56 63  1  1  0  0  0
 61 64  1  0  0  0  0
 62 65  1  0  0  0  0
 64 66  1  0  0  0  0
 64 67  1  0  0  0  0
 64 68  1  1  0  0  0
 66 69  1  0  0  0  0
 67 70  1  0  0  0  0
 69 71  1  0  0  0  0
 69 72  1  0  0  0  0
 69 73  1  0  0  0  0
 71 74  1  1  0  0  0
 74 75  1  0  0  0  0
 75 76  2  0  0  0  0
 75 77  2  0  0  0  0
 75 78  1  0  0  0  0
 51 53  1  0  0  0  0
 52 55  1  0  0  0  0
 58 61  1  0  0  0  0
 65 66  1  0  0  0  0
 70 71  1  0  0  0  0
 46 79  1  1  0  0  0
 61 80  1  6  0  0  0
 66 81  1  6  0  0  0
 45 82  1  1  0  0  0
 82 83  1  0  0  0  0
 13 83  1  1  0  0  0
 82 84  2  0  0  0  0
 41  1  1  0  0  0  0
M  CHG  1  78  -1
M  END

>  <ACTIVITY>
5.00
$$$$
8903

  Mrv0541 05041708522D          

 40 47  0  0  1  0            999 V2000
    1.0082  -11.7699    0.0000 C   0  0  0  0  0  0  0  0  0  0  0  0
    0.9981  -12.5987    0.0000 C   0  0  0  0  0  0  0  0  0  0  0  0
    1.7131  -13.0240    0.0000 C   0  0  0  0  0  0  0  0  0  0  0  0
    1.7334  -11.3663    0.0000 C   0  0  0  0  0  0  0  0  0  0  0  0
    2.4443  -11.7874    0.0000 C   0  0  0  0  0  0  0  0  0  0  0  0
    2.4306  -12.6182    0.0000 C   0  0  0  0  0  0  0  0  0  0  0  0
    3.2168  -12.8908    0.0000 N   0  0  0  0  0  0  0  0  0  0  0  0
    3.2387  -11.5449    0.0000 C   0  0  0  0  0  0  0  0  0  0  0  0
    3.7094  -12.2259    0.0000 C   0  0  0  0  0  0  0  0  0  0  0  0
    4.4151  -10.7256    0.0000 C   0  0  0  0  0  0  0  0  0  0  0  0
    3.5896  -10.7948    0.0000 C   0  0  0  0  0  0  0  0  0  0  0  0
    4.8899  -11.4066    0.0000 N   0  0  0  0  0  0  0  0  0  0  0  0
    4.5329  -12.1532    0.0000 C   0  0  2  0  0  0  0  0  0  0  0  0
    5.0036  -12.8341    0.0000 C   0  0  0  0  0  0  0  0  0  0  0  0
    5.7134  -11.3410    0.0000 C   0  0  0  0  0  0  0  0  0  0  0  0
    6.1799  -12.0219    0.0000 C   0  0  2  0  0  0  0  0  0  0  0  0
    5.8271  -12.7648    0.0000 C   0  0  1  0  0  0  0  0  0  0  0  0
    6.2905  -13.4396    0.0000 C   0  0  0  0  0  0  0  0  0  0  0  0
    7.1107  -13.3758    0.0000 C   0  0  0  0  0  0  0  0  0  0  0  0
    7.0002  -11.9581    0.0000 C   0  0  1  0  0  0  0  0  0  0  0  0
    7.4659  -12.6338    0.0000 N   0  0  0  0  0  0  0  0  0  0  0  0
    8.2861  -12.5719    0.0000 C   0  0  0  0  0  0  0  0  0  0  0  0
    8.6405  -11.8302    0.0000 C   0  0  0  0  0  0  0  0  0  0  0  0
    7.3586  -11.2164    0.0000 C   0  0  0  0  0  0  0  0  0  0  0  0
    8.1799  -11.1554    0.0000 C   0  0  0  0  0  0  0  0  0  0  0  0
    7.0440  -10.4540    0.0000 N   0  0  0  0  0  0  0  0  0  0  0  0
    7.6733   -9.9203    0.0000 C   0  0  0  0  0  0  0  0  0  0  0  0
    8.3739  -10.3559    0.0000 C   0  0  0  0  0  0  0  0  0  0  0  0
    9.0999   -9.9644    0.0000 C   0  0  0  0  0  0  0  0  0  0  0  0
    9.1254   -9.1415    0.0000 C   0  0  0  0  0  0  0  0  0  0  0  0
    8.4249   -8.7099    0.0000 C   0  0  0  0  0  0  0  0  0  0  0  0
    7.6988   -9.0973    0.0000 C   0  0  0  0  0  0  0  0  0  0  0  0
    6.5430  -11.2645    0.0000 C   0  0  0  0  0  0  0  0  0  0  0  0
    4.1648  -12.8975    0.0000 H   0  0  0  0  0  0  0  0  0  0  0  0
    5.4526  -13.5035    0.0000 H   0  0  0  0  0  0  0  0  0  0  0  0
    6.6405  -12.7080    0.0000 H   0  0  0  0  0  0  0  0  0  0  0  0
    5.9323  -14.1820    0.0000 C   0  0  0  0  0  0  0  0  0  0  0  0
    6.4007  -14.8657    0.0000 O   0  0  0  0  0  0  0  0  0  0  0  0
    6.0425  -15.6106    0.0000 C   0  0  0  0  0  0  0  0  0  0  0  0
    5.1056  -14.2434    0.0000 O   0  0  0  0  0  0  0  0  0  0  0  0
 17 18  1  0  0  0  0
 18 19  2  0  0  0  0
 19 21  1  0  0  0  0
 20 16  1  0  0  0  0
  4  1  2  0  0  0  0
  8  9  2  0  0  0  0
  9 13  1  0  0  0  0
 20 21  1  0  0  0  0
 21 22  1  0  0  0  0
 22 23  1  0  0  0  0
 23 25  1  0  0  0  0
 24 20  1  0  0  0  0
 12 10  1  0  0  0  0
 10 11  1  0  0  0  0
 11  8  1  0  0  0  0
 24 25  2  0  0  0  0
 25 28  1  0  0  0  0
 27 26  1  0  0  0  0
 26 24  1  0  0  0  0
  1  2  1  0  0  0  0
  2  3  2  0  0  0  0
  5  6  2  0  0  0  0
  6  7  1  0  0  0  0
 12 13  1  0  0  0  0
 13 14  1  0  0  0  0
 27 28  2  0  0  0  0
 28 29  1  0  0  0  0
 29 30  2  0  0  0  0
 30 31  1  0  0  0  0
 31 32  2  0  0  0  0
 32 27  1  0  0  0  0
 14 17  1  0  0  0  0
 20 33  1  1  0  0  0
 16 15  1  0  0  0  0
 13 34  1  1  0  0  0
 15 12  1  0  0  0  0
 17 35  1  6  0  0  0
  7  9  1  0  0  0  0
 16 36  1  6  0  0  0
  8  5  1  0  0  0  0
 18 37  1  0  0  0  0
  3  6  1  0  0  0  0
 37 38  1  0  0  0  0
  5  4  1  0  0  0  0
 38 39  1  0  0  0  0
 16 17  1  0  0  0  0
 37 40  2  0  0  0  0
M  END

>  <ACTIVITY>
5.00
$$$$
9040

  Mrv0541 05041708522D          

 39 42  0  0  1  0            999 V2000
    9.9650   -8.9276    0.0000 C   0  0  2  0  0  0  0  0  0  0  0  0
   10.6802   -8.5157    0.0000 C   0  0  0  0  0  0  0  0  0  0  0  0
   11.3911   -8.9233    0.0000 N   0  0  0  0  0  0  0  0  0  0  0  0
   12.1021   -8.5115    0.0000 C   0  0  1  0  0  0  0  0  0  0  0  0
   12.8173   -8.9189    0.0000 C   0  0  0  0  0  0  0  0  0  0  0  0
   13.5282   -8.5071    0.0000 C   0  0  0  0  0  0  0  0  0  0  0  0
    9.6580   -5.9214    0.0000 C   0  0  0  0  0  0  0  0  0  0  0  0
    9.6580   -6.7493    0.0000 C   0  0  0  0  0  0  0  0  0  0  0  0
   10.3728   -7.1611    0.0000 C   0  0  0  0  0  0  0  0  0  0  0  0
   11.0875   -6.7493    0.0000 C   0  0  0  0  0  0  0  0  0  0  0  0
   11.0875   -5.9214    0.0000 C   0  0  0  0  0  0  0  0  0  0  0  0
   10.3728   -5.5095    0.0000 C   0  0  0  0  0  0  0  0  0  0  0  0
   11.8008   -5.5102    0.0000 C   0  0  0  0  0  0  0  0  0  0  0  0
    8.9452   -7.1615    0.0000 O   0  0  0  0  0  0  0  0  0  0  0  0
    8.9457   -8.3405    0.0000 C   0  0  2  0  0  0  0  0  0  0  0  0
   12.8255   -6.1045    0.0000 C   0  0  0  0  0  0  0  0  0  0  0  0
   12.8239   -7.2861    0.0000 N   0  0  0  0  0  0  0  0  0  0  0  0
   12.1002   -7.6878    0.0000 C   0  0  0  0  0  0  0  0  0  0  0  0
   10.6783   -7.6922    0.0000 O   0  0  0  0  0  0  0  0  0  0  0  0
   11.3897   -7.2717    0.0000 O   0  0  0  0  0  0  0  0  0  0  0  0
    9.9656   -9.7555    0.0000 N   0  0  0  0  0  0  0  0  0  0  0  0
    8.2260   -8.7549    0.0000 C   0  0  0  0  0  0  0  0  0  0  0  0
    7.5140   -8.3413    0.0000 C   0  0  0  0  0  0  0  0  0  0  0  0
    6.7985   -8.7557    0.0000 C   0  0  0  0  0  0  0  0  0  0  0  0
    6.7996   -9.5826    0.0000 C   0  0  0  0  0  0  0  0  0  0  0  0
    7.5160   -9.9952    0.0000 C   0  0  0  0  0  0  0  0  0  0  0  0
    8.2313   -9.5809    0.0000 C   0  0  0  0  0  0  0  0  0  0  0  0
    8.9384   -9.1638    0.0000 H   0  0  0  0  0  0  0  0  0  0  0  0
   12.8192   -9.7469    0.0000 C   0  0  0  0  0  0  0  0  0  0  0  0
    9.2962  -10.2408    0.0000 C   0  0  0  0  0  0  0  0  0  0  0  0
    9.5534  -11.0265    0.0000 N   0  0  0  0  0  0  0  0  0  0  0  0
   10.3769  -11.0257    0.0000 C   0  0  3  0  0  0  0  0  0  0  0  0
   10.6330  -10.2396    0.0000 C   0  0  0  0  0  0  0  0  0  0  0  0
   11.4191   -9.9836    0.0000 O   0  0  0  0  0  0  0  0  0  0  0  0
    9.0712  -11.6953    0.0000 C   0  0  0  0  0  0  0  0  0  0  0  0
   11.0884  -11.4309    0.0000 C   0  0  0  0  0  0  0  0  0  0  0  0
   11.7994  -11.0192    0.0000 C   0  0  0  0  0  0  0  0  0  0  0  0
   12.5147  -11.4266    0.0000 C   0  0  0  0  0  0  0  0  0  0  0  0
   13.2255  -11.0148    0.0000 C   0  0  0  0  0  0  0  0  0  0  0  0
  2 19  2  0  0  0  0
  8  9  2  0  0  0  0
 18 20  2  0  0  0  0
  9 10  1  0  0  0  0
  1 21  1  1  0  0  0
 10 11  2  0  0  0  0
 15 22  1  0  0  0  0
 11 12  1  0  0  0  0
 12  7  2  0  0  0  0
  1  2  1  0  0  0  0
 11 13  1  0  0  0  0
  3  4  1  0  0  0  0
 22 23  2  0  0  0  0
 23 24  1  0  0  0  0
 24 25  2  0  0  0  0
 25 26  1  0  0  0  0
 26 27  2  0  0  0  0
 27 22  1  0  0  0  0
  8 14  1  0  0  0  0
 15 28  1  6  0  0  0
  5 29  1  0  0  0  0
 14 15  1  0  0  0  0
  4  5  1  6  0  0  0
 13 16  2  0  0  0  0
 15  1  1  0  0  0  0
 21 30  1  0  0  0  0
 30 31  1  0  0  0  0
 31 32  1  0  0  0  0
 32 33  1  0  0  0  0
 33 21  1  0  0  0  0
  2  3  1  0  0  0  0
 33 34  2  0  0  0  0
 16 17  1  0  0  0  0
 31 35  1  0  0  0  0
  5  6  1  0  0  0  0
 32 36  1  4  0  0  0
  4 18  1  0  0  0  0
 36 37  1  0  0  0  0
 18 17  1  0  0  0  0
 37 38  1  0  0  0  0
  7  8  1  0  0  0  0
 38 39  1  0  0  0  0
M  END

>  <ACTIVITY>
5.00
$$$$
9231

  Mrv0541 05041708522D          

 56 61  0  0  1  0            999 V2000
    0.7145    2.8875    0.0000 C   0  0  1  0  0  0  0  0  0  0  0  0
    1.4289    2.4750    0.0000 C   0  0  0  0  0  0  0  0  0  0  0  0
    2.1434    2.8875    0.0000 C   0  0  0  0  0  0  0  0  0  0  0  0
    2.1434    3.7125    0.0000 C   0  0  1  0  0  0  0  0  0  0  0  0
    1.4289    4.1250    0.0000 C   0  0  2  0  0  0  0  0  0  0  0  0
    0.7145    3.7125    0.0000 O   0  0  0  0  0  0  0  0  0  0  0  0
   -0.7145    1.2375    0.0000 C   0  0  0  0  0  0  0  0  0  0  0  0
    0.7145    1.2375    0.0000 C   0  0  1  0  0  0  0  0  0  0  0  0
    0.0000    1.6500    0.0000 C   0  0  1  0  0  0  0  0  0  0  0  0
   -0.7145    0.4125    0.0000 C   0  0  0  0  0  0  0  0  0  0  0  0
   -1.4290    0.0000    0.0000 C   0  0  0  0  0  0  0  0  0  0  0  0
   -1.4290   -0.8250    0.0000 C   0  0  1  0  0  0  0  0  0  0  0  0
   -0.7145   -1.2375    0.0000 O   0  0  0  0  0  0  0  0  0  0  0  0
    0.7145   -1.2375    0.0000 C   0  0  0  0  0  0  0  0  0  0  0  0
    1.4289    0.0000    0.0000 C   0  0  0  0  0  0  0  0  0  0  0  0
    2.1434    0.4125    0.0000 C   0  0  0  0  0  0  0  0  0  0  0  0
    3.5723   -1.2375    0.0000 C   0  0  0  0  0  0  0  0  0  0  0  0
    4.2868   -0.8250    0.0000 C   0  0  0  0  0  0  0  0  0  0  0  0
    5.0013    0.4125    0.0000 C   0  0  0  0  0  0  0  0  0  0  0  0
    0.0000    2.4750    0.0000 O   0  0  0  0  0  0  0  0  0  0  0  0
    1.4289    4.9500    0.0000 C   0  0  0  0  0  0  0  0  0  0  0  0
    2.8579    4.1250    0.0000 N   0  0  0  0  0  0  0  0  0  0  0  0
    3.5723    3.7125    0.0000 C   0  0  0  0  0  0  0  0  0  0  0  0
    1.4289    1.6500    0.0000 C   0  0  0  0  0  0  0  0  0  0  0  0
   -2.1434   -1.2375    0.0000 C   0  0  0  0  0  0  0  0  0  0  0  0
   -2.8579   -0.8250    0.0000 C   0  0  0  0  0  0  0  0  0  0  0  0
    1.4289   -1.6500    0.0000 H   0  0  0  0  0  0  0  0  0  0  0  0
    2.8579   -1.6500    0.0000 H   0  0  0  0  0  0  0  0  0  0  0  0
    1.4289   -0.8250    0.0000 C   0  0  2  0  0  0  0  0  0  0  0  0
    2.8579   -0.8250    0.0000 C   0  0  1  0  0  0  0  0  0  0  0  0
    5.0013    1.2375    0.0000 C   0  0  2  0  0  0  0  0  0  0  0  0
    3.5723    1.2375    0.0000 C   0  0  0  0  0  0  0  0  0  0  0  0
    6.4302    1.2375    0.0000 C   0  0  1  0  0  0  0  0  0  0  0  0
    6.4302    0.4125    0.0000 C   0  0  1  0  0  0  0  0  0  0  0  0
    7.1447    0.0000    0.0000 C   0  0  1  0  0  0  0  0  0  0  0  0
    7.8592    0.4125    0.0000 C   0  0  2  0  0  0  0  0  0  0  0  0
    7.8592    1.2375    0.0000 C   0  0  1  0  0  0  0  0  0  0  0  0
    7.1447    1.6500    0.0000 O   0  0  0  0  0  0  0  0  0  0  0  0
    8.5736    1.6500    0.0000 C   0  0  0  0  0  0  0  0  0  0  0  0
    7.1447   -0.8250    0.0000 O   0  0  0  0  0  0  0  0  0  0  0  0
    7.8592   -1.2375    0.0000 C   0  0  0  0  0  0  0  0  0  0  0  0
    5.7158    0.0000    0.0000 O   0  0  0  0  0  0  0  0  0  0  0  0
    5.7158   -0.8250    0.0000 C   0  0  0  0  0  0  0  0  0  0  0  0
    8.5736    0.0000    0.0000 O   0  0  0  0  0  0  0  0  0  0  0  0
    9.2881    0.4125    0.0000 C   0  0  0  0  0  0  0  0  0  0  0  0
    5.7158    1.6500    0.0000 O   0  0  0  0  0  0  0  0  0  0  0  0
    3.5723    0.4125    0.0000 C   0  0  2  0  0  0  0  0  0  0  0  0
    3.5723   -0.4125    0.0000 H   0  0  0  0  0  0  0  0  0  0  0  0
    4.2868    0.0000    0.0000 C   0  0  2  0  0  0  0  0  0  0  0  0
    4.2868    0.8250    0.0000 H   0  0  0  0  0  0  0  0  0  0  0  0
    2.8579    0.0000    0.0000 C   0  0  2  0  0  0  0  0  0  0  0  0
    2.8579    0.8250    0.0000 H   0  0  0  0  0  0  0  0  0  0  0  0
    0.0000   -0.8250    0.0000 C   0  0  0  0  0  0  0  0  0  0  0  0
    0.0000   -1.6500    0.0000 O   0  0  0  0  0  0  0  0  0  0  0  0
    0.7145    0.4125    0.0000 C   0  0  0  0  0  0  0  0  0  0  0  0
    0.0000    0.0000    0.0000 O   0  0  0  0  0  0  0  0  0  0  0  0
 13 53  1  0  0  0  0
 53 14  1  0  0  0  0
  1 20  1  6  0  0  0
  1  2  1  0  0  0  0
  6  1  1  0  0  0  0
  2  3  1  0  0  0  0
  3  4  1  0  0  0  0
  4 22  1  1  0  0  0
  4  5  1  0  0  0  0
  5 21  1  6  0  0  0
  5  6  1  0  0  0  0
  9  7  1  0  0  0  0
  7 10  1  0  0  0  0
 55  8  1  0  0  0  0
  8  9  1  0  0  0  0
  8 24  1  1  0  0  0
  9 20  1  6  0  0  0
 10 11  1  0  0  0  0
 11 12  1  0  0  0  0
 12 13  1  0  0  0  0
 12 25  1  1  0  0  0
 14 29  1  0  0  0  0
 15 55  1  0  0  0  0
 15 29  1  0  0  0  0
 16 15  2  0  0  0  0
 51 16  1  0  0  0  0
 30 17  1  0  0  0  0
 17 18  2  0  0  0  0
 18 49  1  0  0  0  0
 49 19  1  0  0  0  0
 19 31  1  0  0  0  0
 22 23  1  0  0  0  0
 25 26  1  0  0  0  0
 29 27  1  1  0  0  0
 30 28  1  6  0  0  0
 29 30  1  0  0  0  0
 51 30  1  0  0  0  0
 31 46  1  6  0  0  0
 32 31  1  0  0  0  0
 32 47  1  0  0  0  0
 33 46  1  6  0  0  0
 38 33  1  0  0  0  0
 33 34  1  0  0  0  0
 34 35  1  0  0  0  0
 34 42  1  1  0  0  0
 35 36  1  0  0  0  0
 35 40  1  1  0  0  0
 36 37  1  0  0  0  0
 36 44  1  6  0  0  0
 37 38  1  0  0  0  0
 37 39  1  1  0  0  0
 40 41  1  0  0  0  0
 42 43  1  0  0  0  0
 44 45  1  0  0  0  0
 47 51  1  0  0  0  0
 47 49  1  0  0  0  0
 47 48  1  1  0  0  0
 49 50  1  6  0  0  0
 51 52  1  6  0  0  0
 53 54  2  0  0  0  0
 55 56  2  0  0  0  0
M  END

>  <ACTIVITY>
5.00
$$$$
9276
 
  Mrv0541 05041708522D          
 
 22 25  0  0  1  0            999 V2000
   16.0029  -10.2470    0.0000 C   0  0  2  0  0  0  0  0  0  0  0  0
   15.7382   -9.4652    0.0000 C   0  0  1  0  0  0  0  0  0  0  0  0
   15.3415  -10.7414    0.0000 C   0  0  0  0  0  0  0  0  0  0  0  0
   16.8195  -10.2875    0.0000 C   0  0  0  0  0  0  0  0  0  0  0  0
   16.3734  -10.9792    0.0000 O   0  0  0  0  0  0  0  0  0  0  0  0
   14.9108   -9.4792    0.0000 C   0  0  1  0  0  0  0  0  0  0  0  0
   16.2391   -8.8090    0.0000 C   0  0  0  0  0  0  0  0  0  0  0  0
   14.6684  -10.2666    0.0000 O   0  0  0  0  0  0  0  0  0  0  0  0
   15.3544  -11.5642    0.0000 O   0  0  0  0  0  0  0  0  0  0  0  0
   14.3797   -8.8428    0.0000 C   0  0  1  0  0  0  0  0  0  0  0  0
   16.0446   -8.0072    0.0000 C   0  0  0  0  0  0  0  0  0  0  0  0
   14.5515   -8.0380    0.0000 C   0  0  2  0  0  0  0  0  0  0  0  0
   13.5604   -8.9195    0.0000 C   0  0  0  0  0  0  0  0  0  0  0  0
   13.8493   -9.6900    0.0000 C   0  0  0  0  0  0  0  0  0  0  0  0
   15.2931   -7.6655    0.0000 C   0  0  1  0  0  0  0  0  0  0  0  0
   13.8410   -7.6208    0.0000 C   0  0  0  0  0  0  0  0  0  0  0  0
   13.2306   -8.1688    0.0000 C   0  0  0  0  0  0  0  0  0  0  0  0
   13.1449   -9.6272    0.0000 O   0  0  0  0  0  0  0  0  0  0  0  0
   15.2754   -6.8438    0.0000 C   0  0  0  0  0  0  0  0  0  0  0  0
   16.5569   -9.5028    0.0000 H   0  0  0  0  0  0  0  0  0  0  0  0
   15.1628   -8.6896    0.0000 H   0  0  0  0  0  0  0  0  0  0  0  0
   14.5917   -7.2090    0.0000 H   0  0  0  0  0  0  0  0  0  0  0  0
  1  2  1  0  0  0  0
  1  3  1  0  0  0  0
  1  4  1  1  0  0  0
  1  5  1  6  0  0  0
  2  6  1  0  0  0  0
  2  7  1  0  0  0  0
  3  8  1  0  0  0  0
  3  9  2  0  0  0  0
  6 10  1  0  0  0  0
  7 11  1  0  0  0  0
 10 12  1  0  0  0  0
 10 13  1  0  0  0  0
 10 14  1  1  0  0  0
 11 15  1  0  0  0  0
 12 16  1  0  0  0  0
 13 17  1  0  0  0  0
 13 18  2  0  0  0  0
 15 19  1  1  0  0  0
  4  5  1  0  0  0  0
  6  8  1  0  0  0  0
 12 15  1  0  0  0  0
 16 17  2  0  0  0  0
  2 20  1  6  0  0  0
  6 21  1  6  0  0  0
 12 22  1  6  0  0  0
M  END

>  <ACTIVITY>
5.00
$$$$
9373

  Mrv0541 05041708522D          

 15 16  0  0  0  0            999 V2000
    2.6493  -12.0318    0.0000 C   0  0  0  0  0  0  0  0  0  0  0  0
    2.6493  -12.8568    0.0000 C   0  0  0  0  0  0  0  0  0  0  0  0
    3.3661  -13.2672    0.0000 C   0  0  0  0  0  0  0  0  0  0  0  0
    3.3661  -11.6172    0.0000 C   0  0  0  0  0  0  0  0  0  0  0  0
    4.0787  -12.0318    0.0000 C   0  0  0  0  0  0  0  0  0  0  0  0
    4.0752  -12.8568    0.0000 C   0  0  0  0  0  0  0  0  0  0  0  0
    4.7886  -13.2703    0.0000 N   0  0  0  0  0  0  0  0  0  0  0  0
    5.5054  -12.8629    0.0000 C   0  0  0  0  0  0  0  0  0  0  0  0
    5.5089  -12.0379    0.0000 C   0  0  0  0  0  0  0  0  0  0  0  0
    4.7955  -11.6202    0.0000 C   0  0  0  0  0  0  0  0  0  0  0  0
    4.7887  -10.7921    0.0000 O   0  0  0  0  0  0  0  0  0  0  0  0
    5.5018  -10.3775    0.0000 C   0  0  0  0  0  0  0  0  0  0  0  0
    6.2149  -11.6254    0.0000 O   0  0  0  0  0  0  0  0  0  0  0  0
    6.9280  -12.0401    0.0000 C   0  0  0  0  0  0  0  0  0  0  0  0
    6.2108  -13.2714    0.0000 O   0  0  0  0  0  0  0  0  0  0  0  0
  4  1  2  0  0  0  0
  5  6  2  0  0  0  0
  6  7  1  0  0  0  0
  7  8  1  0  0  0  0
  8  9  1  0  0  0  0
  9 10  2  0  0  0  0
 10  5  1  0  0  0  0
 10 11  1  0  0  0  0
  1  2  1  0  0  0  0
 11 12  1  0  0  0  0
  2  3  2  0  0  0  0
  9 13  1  0  0  0  0
  3  6  1  0  0  0  0
 13 14  1  0  0  0  0
  5  4  1  0  0  0  0
  8 15  2  0  0  0  0
M  END

>  <ACTIVITY>
5.00
$$$$
9539

  Mrv0541 05041708522D          

 15 15  0  0  0  0            999 V2000
    0.4624   -0.0340    0.0000 C   0  0  0  0  0  0  0  0  0  0  0  0
    0.0646    0.6869    0.0000 C   0  0  0  0  0  0  0  0  0  0  0  0
    0.0408   -0.7412    0.0000 S   0  0  0  0  0  0  0  0  0  0  0  0
    1.2886   -0.0476    0.0000 C   0  0  0  0  0  0  0  0  0  0  0  0
   -0.7650    0.7004    0.0000 C   0  0  0  0  0  0  0  0  0  0  0  0
   -0.7888   -0.7310    0.0000 S   0  0  0  0  0  0  0  0  0  0  0  0
    2.1114   -0.0612    0.0000 C   0  0  0  0  0  0  0  0  0  0  0  0
   -1.1900   -0.0102    0.0000 C   0  0  0  0  0  0  0  0  0  0  0  0
    2.9376   -0.0578    0.0000 C   0  0  0  0  0  0  0  0  0  0  0  0
   -1.9720   -0.0068    0.0000 C   0  0  0  0  0  0  0  0  0  0  0  0
    3.7638   -0.0544    0.0000 C   0  0  0  0  0  0  0  0  0  0  0  0
   -2.7540   -0.0034    0.0000 C   0  0  0  0  0  0  0  0  0  0  0  0
    4.5866   -0.0510    0.0000 C   0  0  0  0  0  0  0  0  0  0  0  0
   -3.5360    0.0034    0.0000 C   0  0  0  0  0  0  0  0  0  0  0  0
   -4.2500    0.4182    0.0000 C   0  0  0  0  0  0  0  0  0  0  0  0
  1  2  2  0  0  0  0
  1  3  1  0  0  0  0
  1  4  1  0  0  0  0
  2  5  1  0  0  0  0
  3  6  1  0  0  0  0
  4  7  3  0  0  0  0
  5  8  2  0  0  0  0
  7  9  1  0  0  0  0
  8 10  1  0  0  0  0
  9 11  3  0  0  0  0
 10 12  3  0  0  0  0
 11 13  1  0  0  0  0
 12 14  1  0  0  0  0
 14 15  2  0  0  0  0
  6  8  1  0  0  0  0
M  END

>  <ACTIVITY>
5.00
$$$$
9778

  Mrv0541 05041708522D          

 20 20  0  0  0  0            999 V2000
   -0.5172    0.2897    0.0000 C   0  0  2  0  0  0  0  0  0  0  0  0
   -1.2171    0.6965    0.0000 O   0  0  0  0  0  0  0  0  0  0  0  0
   -0.5172   -0.5276    0.0000 C   0  0  1  0  0  0  0  0  0  0  0  0
    0.1931    0.6965    0.0000 O   0  0  0  0  0  0  0  0  0  0  0  0
   -1.9308    0.2897    0.0000 C   0  0  1  0  0  0  0  0  0  0  0  0
   -1.2171   -0.9413    0.0000 C   0  0  2  0  0  0  0  0  0  0  0  0
    0.1931   -0.9378    0.0000 O   0  0  0  0  0  0  0  0  0  0  0  0
    0.9171    0.2828    0.0000 C   0  0  0  0  0  0  0  0  0  0  0  0
   -1.9308   -0.5276    0.0000 C   0  0  2  0  0  0  0  0  0  0  0  0
   -2.6343    0.6965    0.0000 C   0  0  0  0  0  0  0  0  0  0  0  0
   -1.2137   -1.7585    0.0000 O   0  0  0  0  0  0  0  0  0  0  0  0
    1.6413    0.6999    0.0000 C   0  0  0  0  0  0  0  0  0  0  0  0
    0.9171   -0.5552    0.0000 O   0  0  0  0  0  0  0  0  0  0  0  0
   -2.6343   -0.9413    0.0000 O   0  0  0  0  0  0  0  0  0  0  0  0
   -3.3445    0.2897    0.0000 O   0  0  0  0  0  0  0  0  0  0  0  0
    2.3688    0.2828    0.0000 C   0  0  3  0  0  0  0  0  0  0  0  0
    1.6413    1.5378    0.0000 C   0  0  0  0  0  0  0  0  0  0  0  0
    3.0928    0.6999    0.0000 C   0  0  0  0  0  0  0  0  0  0  0  0
    2.3722   -0.5552    0.0000 O   0  0  0  0  0  0  0  0  0  0  0  0
    3.8204    0.2862    0.0000 O   0  0  0  0  0  0  0  0  0  0  0  0
  1  2  1  0  0  0  0
  1  3  1  0  0  0  0
  1  4  1  1  0  0  0
  2  5  1  0  0  0  0
  3  6  1  0  0  0  0
  3  7  1  6  0  0  0
  4  8  1  0  0  0  0
  5  9  1  0  0  0  0
  5 10  1  1  0  0  0
  6 11  1  1  0  0  0
  8 12  1  0  0  0  0
  8 13  2  0  0  0  0
  9 14  1  6  0  0  0
 10 15  1  0  0  0  0
 12 16  1  0  0  0  0
 12 17  2  0  0  0  0
 16 18  1  0  0  0  0
 16 19  1  4  0  0  0
 18 20  1  0  0  0  0
  6  9  1  0  0  0  0
M  END

>  <ACTIVITY>
5.00
$$$$
9999

  Mrv0541 05041708522D          

 27 30  0  0  1  0            999 V2000
   15.1993  -14.0500    0.0000 C   0  0  2  0  0  0  0  0  0  0  0  0
   14.3858  -14.1180    0.0000 C   0  0  3  0  0  0  0  0  0  0  0  0
   15.7125  -14.7023    0.0000 C   0  0  2  0  0  0  0  0  0  0  0  0
   15.3891  -13.2471    0.0000 C   0  0  1  0  0  0  0  0  0  0  0  0
   14.0652  -13.3650    0.0000 C   0  0  3  0  0  0  0  0  0  0  0  0
   13.5724  -14.0259    0.0000 O   0  0  0  0  0  0  0  0  0  0  0  0
   13.9577  -14.8178    0.0000 C   0  0  0  0  0  0  0  0  0  0  0  0
   16.5436  -14.7049    0.0000 C   0  0  1  0  0  0  0  0  0  0  0  0
   15.4527  -15.4952    0.0000 O   0  0  0  0  0  0  0  0  0  0  0  0
   15.9369  -13.9083    0.0000 H   0  0  0  0  0  0  0  0  0  0  0  0
   14.6829  -12.8230    0.0000 C   0  0  0  0  0  0  0  0  0  0  0  0
   16.1404  -12.8893    0.0000 C   0  0  0  0  0  0  0  0  0  0  0  0
   17.0648  -14.0569    0.0000 C   0  0  2  0  0  0  0  0  0  0  0  0
   16.8012  -15.4962    0.0000 C   0  0  1  0  0  0  0  0  0  0  0  0
   16.1259  -15.9875    0.0000 C   0  0  0  0  0  0  0  0  0  0  0  0
   16.8854  -13.2488    0.0000 C   0  0  0  0  0  0  0  0  0  0  0  0
   16.1407  -12.0688    0.0000 C   0  0  0  0  0  0  0  0  0  0  0  0
   17.8183  -14.4057    0.0000 O   0  0  0  0  0  0  0  0  0  0  0  0
   16.1256  -16.8081    0.0000 O   0  0  0  0  0  0  0  0  0  0  0  0
   18.5159  -13.9846    0.0000 C   0  0  0  0  0  0  0  0  0  0  0  0
   18.5012  -13.1635    0.0000 O   0  0  0  0  0  0  0  0  0  0  0  0
   19.2328  -14.3832    0.0000 C   0  0  0  0  0  0  0  0  0  0  0  0
   14.9724  -14.8346    0.0000 H   0  0  0  0  0  0  0  0  0  0  0  0
   15.4005  -12.4213    0.0000 H   0  0  0  0  0  0  0  0  0  0  0  0
   13.2417  -13.3429    0.0000 H   0  0  0  0  0  0  0  0  0  0  0  0
   17.2168  -14.9345    0.0000 H   0  0  0  0  0  0  0  0  0  0  0  0
   17.5824  -15.7495    0.0000 C   0  0  0  0  0  0  0  0  0  0  0  0
  1  2  1  0  0  0  0
  1  3  1  0  0  0  0
  1  4  1  0  0  0  0
  2  5  1  0  0  0  0
  2  6  1  0  0  0  0
  2  7  1  4  0  0  0
  3  8  1  0  0  0  0
  3  9  1  0  0  0  0
  3 10  1  1  0  0  0
  4 11  1  0  0  0  0
  4 12  1  0  0  0  0
  8 13  1  0  0  0  0
  8 14  1  0  0  0  0
  9 15  1  0  0  0  0
 12 16  1  0  0  0  0
 12 17  2  0  0  0  0
 13 18  1  6  0  0  0
 15 19  2  0  0  0  0
 18 20  1  0  0  0  0
 20 21  2  0  0  0  0
 20 22  1  0  0  0  0
  5  6  1  0  0  0  0
  5 11  1  0  0  0  0
 13 16  1  0  0  0  0
 14 15  1  0  0  0  0
  1 23  1  6  0  0  0
  4 24  1  6  0  0  0
  5 25  1  4  0  0  0
  8 26  1  6  0  0  0
 14 27  1  6  0  0  0
M  END

>  <ACTIVITY>
5.00
$$$$
10092

  Mrv0541 05041708522D          

 61 67  0  0  0  0            999 V2000
   21.3741  -11.7836    0.0000 C   0  0  2  0  0  0  0  0  0  0  0  0
   21.7787  -11.0635    0.0000 C   0  0  0  0  0  0  0  0  0  0  0  0
   20.9537  -11.0635    0.0000 C   0  0  0  0  0  0  0  0  0  0  0  0
   21.5620  -10.2635    0.0000 O   0  0  0  0  0  0  0  0  0  0  0  0
   22.6037  -11.0635    0.0000 O   0  0  0  0  0  0  0  0  0  0  0  0
   23.0120  -11.7760    0.0000 C   0  0  0  0  0  0  0  0  0  0  0  0
   12.0292  -17.9333    0.0000 C   0  0  2  0  0  0  0  0  0  0  0  0
   11.3140  -17.5125    0.0000 O   0  0  0  0  0  0  0  0  0  0  0  0
   12.0216  -18.7650    0.0000 C   0  0  1  0  0  0  0  0  0  0  0  0
   10.5913  -17.9234    0.0000 C   0  0  1  0  0  0  0  0  0  0  0  0
   11.3003  -19.1712    0.0000 C   0  0  2  0  0  0  0  0  0  0  0  0
   12.7335  -19.1797    0.0000 O   0  0  0  0  0  0  0  0  0  0  0  0
   10.5867  -18.7534    0.0000 C   0  0  1  0  0  0  0  0  0  0  0  0
    9.8778  -17.5056    0.0000 C   0  0  0  0  0  0  0  0  0  0  0  0
   11.2941  -19.9981    0.0000 O   0  0  0  0  0  0  0  0  0  0  0  0
    9.8747  -19.1624    0.0000 O   0  0  0  0  0  0  0  0  0  0  0  0
    9.8840  -16.6787    0.0000 O   0  0  0  0  0  0  0  0  0  0  0  0
   14.9042  -16.2833    0.0000 C   0  0  2  0  0  0  0  0  0  0  0  0
   14.1913  -15.8697    0.0000 O   0  0  0  0  0  0  0  0  0  0  0  0
   14.9029  -17.1178    0.0000 C   0  0  1  0  0  0  0  0  0  0  0  0
   13.4683  -16.2854    0.0000 C   0  0  1  0  0  0  0  0  0  0  0  0
   14.1833  -17.5276    0.0000 C   0  0  2  0  0  0  0  0  0  0  0  0
   15.6157  -17.5314    0.0000 O   0  0  0  0  0  0  0  0  0  0  0  0
   13.4704  -17.1139    0.0000 C   0  0  1  0  0  0  0  0  0  0  0  0
   12.7554  -15.8718    0.0000 C   0  0  0  0  0  0  0  0  0  0  0  0
   14.1855  -18.3561    0.0000 O   0  0  0  0  0  0  0  0  0  0  0  0
   12.7491  -17.5266    0.0000 O   0  0  0  0  0  0  0  0  0  0  0  0
   12.7502  -15.0415    0.0000 O   0  0  0  0  0  0  0  0  0  0  0  0
   20.6397  -13.0043    0.0000 C   0  0  1  0  0  0  0  0  0  0  0  0
   19.9224  -13.4112    0.0000 C   0  0  0  0  0  0  0  0  0  0  0  0
   21.3466  -13.4284    0.0000 C   0  0  1  0  0  0  0  0  0  0  0  0
   20.6500  -12.1836    0.0000 C   0  0  0  0  0  0  0  0  0  0  0  0
   19.9155  -14.2319    0.0000 C   0  0  2  0  0  0  0  0  0  0  0  0
   19.2155  -12.9905    0.0000 C   0  0  0  0  0  0  0  0  0  0  0  0
   21.3397  -14.2491    0.0000 C   0  0  0  0  0  0  0  0  0  0  0  0
   22.0672  -13.0216    0.0000 C   0  0  0  0  0  0  0  0  0  0  0  0
   22.0569  -13.8388    0.0000 C   0  0  0  0  0  0  0  0  0  0  0  0
   19.1948  -14.6422    0.0000 C   0  0  1  0  0  0  0  0  0  0  0  0
   20.6224  -14.6526    0.0000 C   0  0  0  0  0  0  0  0  0  0  0  0
   19.9086  -15.0560    0.0000 C   0  0  0  0  0  0  0  0  0  0  0  0
   18.4914  -13.3974    0.0000 C   0  0  0  0  0  0  0  0  0  0  0  0
   22.0776  -12.2009    0.0000 C   0  0  0  0  0  0  0  0  0  0  0  0
   22.0535  -14.6664    0.0000 O   0  0  0  0  0  0  0  0  0  0  0  0
   22.7776  -13.4319    0.0000 O   0  0  0  0  0  0  0  0  0  0  0  0
   18.4845  -14.2216    0.0000 C   0  0  2  0  0  0  0  0  0  0  0  0
   19.1948  -15.4664    0.0000 C   0  0  0  0  0  0  0  0  0  0  0  0
   19.1879  -13.8112    0.0000 C   0  0  0  0  0  0  0  0  0  0  0  0
   17.7707  -14.6353    0.0000 C   0  0  2  0  0  0  0  0  0  0  0  0
   18.4776  -15.8767    0.0000 C   0  0  0  0  0  0  0  0  0  0  0  0
   17.7672  -15.4595    0.0000 C   0  0  1  0  0  0  0  0  0  0  0  0
   17.0603  -14.2181    0.0000 C   0  0  0  0  0  0  0  0  0  0  0  0
   17.7638  -13.8078    0.0000 C   0  0  0  0  0  0  0  0  0  0  0  0
   17.0603  -15.8767    0.0000 C   0  0  0  0  0  0  0  0  0  0  0  0
   16.3362  -14.6353    0.0000 C   0  0  0  0  0  0  0  0  0  0  0  0
   16.3362  -15.4595    0.0000 C   0  0  2  0  0  0  0  0  0  0  0  0
   16.6328  -16.5871    0.0000 C   0  0  0  0  0  0  0  0  0  0  0  0
   17.2638  -16.6733    0.0000 C   0  0  0  0  0  0  0  0  0  0  0  0
   15.6224  -15.8767    0.0000 O   0  0  0  0  0  0  0  0  0  0  0  0
   20.6362  -13.8284    0.0000 H   0  0  0  0  0  0  0  0  0  0  0  0
   18.4776  -15.0457    0.0000 H   0  0  0  0  0  0  0  0  0  0  0  0
   17.7603  -16.2836    0.0000 H   0  0  0  0  0  0  0  0  0  0  0  0
  1  2  1  1  0  0  0
  1  3  1  6  0  0  0
  2  4  2  0  0  0  0
  2  5  1  0  0  0  0
  5  6  1  0  0  0  0
 21 24  1  0  0  0  0
 21 25  1  1  0  0  0
 22 26  1  1  0  0  0
 24 27  1  1  0  0  0
 25 28  1  0  0  0  0
 22 24  1  0  0  0  0
 11 13  1  0  0  0  0
  7  8  1  0  0  0  0
  7  9  1  0  0  0  0
  8 10  1  0  0  0  0
  9 11  1  0  0  0  0
  9 12  1  6  0  0  0
 10 13  1  0  0  0  0
 10 14  1  1  0  0  0
 11 15  1  1  0  0  0
 13 16  1  1  0  0  0
 14 17  1  0  0  0  0
 18 19  1  0  0  0  0
 18 20  1  0  0  0  0
 19 21  1  0  0  0  0
 29 30  1  0  0  0  0
 29 31  1  0  0  0  0
 29 32  1  0  0  0  0
 30 33  1  0  0  0  0
 30 34  2  0  0  0  0
 31 35  1  0  0  0  0
 31 36  1  0  0  0  0
 31 37  1  1  0  0  0
 32  1  1  0  0  0  0
 33 38  1  0  0  0  0
 33 39  1  0  0  0  0
 33 40  1  6  0  0  0
 34 41  1  0  0  0  0
 36 42  1  0  0  0  0
 37 43  2  0  0  0  0
 37 44  1  0  0  0  0
 38 45  1  0  0  0  0
 38 46  1  0  0  0  0
 38 47  1  1  0  0  0
 45 48  1  0  0  0  0
 46 49  1  0  0  0  0
 48 50  1  0  0  0  0
 48 51  1  0  0  0  0
 48 52  1  1  0  0  0
 50 53  1  0  0  0  0
 51 54  1  0  0  0  0
 53 55  1  0  0  0  0
 53 56  1  0  0  0  0
 53 57  1  0  0  0  0
 55 58  1  1  0  0  0
 35 39  1  0  0  0  0
  1 42  1  0  0  0  0
 41 45  1  0  0  0  0
 49 50  1  0  0  0  0
 54 55  1  0  0  0  0
 29 59  1  1  0  0  0
 45 60  1  6  0  0  0
 50 61  1  6  0  0  0
 20 22  1  0  0  0  0
 18 58  1  1  0  0  0
  7 27  1  1  0  0  0
 20 23  1  6  0  0  0
M  END

>  <ACTIVITY>
5.00
$$$$
10109

  Mrv0541 05041708522D          

 28 30  0  0  1  0            999 V2000
    6.2344  -12.6654    0.0000 O   0  0  0  0  0  0  0  0  0  0  0  0
    6.9352  -12.1530    0.0000 C   0  0  0  0  0  0  0  0  0  0  0  0
    7.6529  -12.5638    0.0000 C   0  0  0  0  0  0  0  0  0  0  0  0
    8.3665  -12.1530    0.0000 C   0  0  0  0  0  0  0  0  0  0  0  0
    6.9352  -11.3272    0.0000 O   0  0  0  0  0  0  0  0  0  0  0  0
    7.6529  -13.3897    0.0000 C   0  0  0  0  0  0  0  0  0  0  0  0
    4.8721  -12.8259    0.0000 C   0  0  2  0  0  0  0  0  0  0  0  0
    5.4566  -12.2485    0.0000 C   0  0  1  0  0  0  0  0  0  0  0  0
    4.0496  -12.8176    0.0000 C   0  0  1  0  0  0  0  0  0  0  0  0
    5.1231  -13.6171    0.0000 C   0  0  0  0  0  0  0  0  0  0  0  0
    5.4563  -11.4169    0.0000 C   0  0  0  0  0  0  0  0  0  0  0  0
    3.3104  -12.1664    0.0000 C   0  0  0  0  0  0  0  0  0  0  0  0
    3.7868  -13.6034    0.0000 O   0  0  0  0  0  0  0  0  0  0  0  0
    4.4509  -14.0921    0.0000 C   0  0  0  0  0  0  0  0  0  0  0  0
    5.7751  -14.0419    0.0000 C   0  0  0  0  0  0  0  0  0  0  0  0
    5.0422  -10.7065    0.0000 C   0  0  1  0  0  0  0  0  0  0  0  0
    3.2668  -11.4124    0.0000 C   0  0  0  0  0  0  0  0  0  0  0  0
    4.4436  -14.9181    0.0000 O   0  0  0  0  0  0  0  0  0  0  0  0
    4.3429  -11.1491    0.0000 O   0  0  0  0  0  0  0  0  0  0  0  0
    4.8308   -9.9025    0.0000 C   0  0  2  0  0  0  0  0  0  0  0  0
    5.6928  -10.2055    0.0000 C   0  0  0  0  0  0  0  0  0  0  0  0
    3.6724  -10.7143    0.0000 C   0  0  2  0  0  0  0  0  0  0  0  0
    2.5161  -10.9536    0.0000 C   0  0  0  0  0  0  0  0  0  0  0  0
    4.0268   -9.9136    0.0000 C   0  0  0  0  0  0  0  0  0  0  0  0
    5.3516   -9.2622    0.0000 O   0  0  0  0  0  0  0  0  0  0  0  0
    2.9499  -10.2993    0.0000 O   0  0  0  0  0  0  0  0  0  0  0  0
    5.7344  -13.2090    0.0000 H   0  0  0  0  0  0  0  0  0  0  0  0
    3.1003  -13.1219    0.0000 H   0  0  0  0  0  0  0  0  0  0  0  0
  2  3  1  0  0  0  0
  3  6  2  0  0  0  0
  1  2  1  0  0  0  0
  3  4  1  0  0  0  0
  2  5  2  0  0  0  0
  7  8  1  0  0  0  0
  7  9  1  0  0  0  0
  7 10  1  0  0  0  0
  8 11  1  0  0  0  0
  8  1  1  1  0  0  0
  9 12  1  0  0  0  0
  9 13  1  0  0  0  0
 10 14  1  0  0  0  0
 10 15  2  0  0  0  0
 16 11  1  1  0  0  0
 12 17  2  0  0  0  0
 14 18  2  0  0  0  0
 16 19  1  0  0  0  0
 16 20  1  0  0  0  0
 16 21  1  6  0  0  0
 22 17  1  1  0  0  0
 17 23  1  0  0  0  0
 20 24  1  0  0  0  0
 20 25  1  6  0  0  0
 22 26  1  6  0  0  0
 13 14  1  0  0  0  0
 19 22  1  0  0  0  0
 22 24  1  0  0  0  0
  7 27  1  6  0  0  0
  9 28  1  1  0  0  0
M  END

>  <ACTIVITY>
5.00
$$$$
22686

  Mrv0541 05041708522D          

 67 73  0  0  0  0            999 V2000
   -1.6487    0.7096    0.0000 C   0  0  0  0  0  0  0  0  0  0  0  0
   -0.7096    1.6696    0.0000 C   0  0  0  0  0  0  0  0  0  0  0  0
    0.0000    2.0870    0.0000 C   0  0  0  0  0  0  0  0  0  0  0  0
    0.7305    1.6696    0.0000 C   0  0  0  0  0  0  0  0  0  0  0  0
    1.6696    0.7096    0.0000 C   0  0  0  0  0  0  0  0  0  0  0  0
    2.0871    0.0000    0.0000 C   0  0  0  0  0  0  0  0  0  0  0  0
    1.6696   -0.7096    0.0000 C   0  0  0  0  0  0  0  0  0  0  0  0
    0.7305   -1.6697    0.0000 C   0  0  0  0  0  0  0  0  0  0  0  0
   -0.7096   -1.6697    0.0000 C   0  0  0  0  0  0  0  0  0  0  0  0
   -1.6487   -0.7096    0.0000 C   0  0  0  0  0  0  0  0  0  0  0  0
   -2.0661    0.0000    0.0000 C   0  0  0  0  0  0  0  0  0  0  0  0
    0.8557    0.8557    0.0000 N   0  0  0  0  0  0  0  0  0  0  0  0
    0.8557   -0.8557    0.0000 N   0  0  0  0  0  0  0  0  0  0  0  0
   -0.8348   -0.8557    0.0000 N   0  0  0  0  0  0  0  0  0  0  0  0
   -2.0244    1.4609    0.0000 C   0  0  0  0  0  0  0  0  0  0  0  0
   -2.8213    1.6744    0.0000 C   0  0  0  0  0  0  0  0  0  0  0  0
    1.4610    2.0453    0.0000 C   0  0  0  0  0  0  0  0  0  0  0  0
    2.0662   -1.4609    0.0000 C   0  0  0  0  0  0  0  0  0  0  0  0
    2.8630   -1.6744    0.0000 C   0  0  0  0  0  0  0  0  0  0  0  0
   -1.4400    2.0453    0.0000 C   0  0  0  0  0  0  0  0  0  0  0  0
    2.0662    1.4609    0.0000 C   0  0  0  0  0  0  0  0  0  0  0  0
   -0.8348    0.8557    0.0000 N   0  0  0  0  0  0  0  0  0  0  0  0
    0.0000    0.0000    0.0000 Mg  0  0  0  0  0  0  0  0  0  0  0  0
    3.4464    1.0910    0.0000 C   0  0  0  0  0  0  0  0  0  0  0  0
    1.6745    2.8422    0.0000 C   0  0  0  0  0  0  0  0  0  0  0  0
    0.0000   -2.0871    0.0000 C   0  0  0  0  0  0  0  0  0  0  0  0
    1.4610   -2.0453    0.0000 C   0  0  0  0  0  0  0  0  0  0  0  0
    1.2475   -2.8840    0.0000 C   0  0  0  0  0  0  0  0  0  0  0  0
    1.6600   -3.5985    0.0000 O   0  0  0  0  0  0  0  0  0  0  0  0
    0.2135   -2.8840    0.0000 C   0  0  2  0  0  0  0  0  0  0  0  0
   -1.0240   -3.5985    0.0000 O   0  0  0  0  0  0  0  0  0  0  0  0
   -0.1990   -3.5985    0.0000 C   0  0  0  0  0  0  0  0  0  0  0  0
    0.2135   -4.3129    0.0000 O   0  0  0  0  0  0  0  0  0  0  0  0
    1.0385   -4.3129    0.0000 C   0  0  0  0  0  0  0  0  0  0  0  0
   -1.4400   -2.0453    0.0000 C   0  0  1  0  0  0  0  0  0  0  0  0
   -1.4400   -2.8703    0.0000 C   0  0  0  0  0  0  0  0  0  0  0  0
   -2.1545   -3.2828    0.0000 C   0  0  0  0  0  0  0  0  0  0  0  0
   -2.1545   -4.1078    0.0000 C   0  0  0  0  0  0  0  0  0  0  0  0
   -1.4400   -4.5203    0.0000 O   0  0  0  0  0  0  0  0  0  0  0  0
   -2.8690   -4.5203    0.0000 O   0  0  0  0  0  0  0  0  0  0  0  0
   -3.5834   -4.1078    0.0000 C   0  0  0  0  0  0  0  0  0  0  0  0
   -4.2979   -4.5202    0.0000 C   0  0  0  0  0  0  0  0  0  0  0  0
   -5.0124   -4.1077    0.0000 C   0  0  0  0  0  0  0  0  0  0  0  0
   -5.7269   -4.5202    0.0000 C   0  0  0  0  0  0  0  0  0  0  0  0
   -5.0123   -3.2827    0.0000 C   0  0  0  0  0  0  0  0  0  0  0  0
   -6.4414   -4.1076    0.0000 C   0  0  0  0  0  0  0  0  0  0  0  0
   -7.1556   -4.5201    0.0000 C   0  0  0  0  0  0  0  0  0  0  0  0
   -7.8701   -4.1075    0.0000 C   0  0  1  0  0  0  0  0  0  0  0  0
   -8.5846   -4.5200    0.0000 C   0  0  0  0  0  0  0  0  0  0  0  0
   -7.8701   -3.2824    0.0000 C   0  0  0  0  0  0  0  0  0  0  0  0
   -9.2990   -4.1075    0.0000 C   0  0  0  0  0  0  0  0  0  0  0  0
  -10.0135   -4.5199    0.0000 C   0  0  0  0  0  0  0  0  0  0  0  0
  -10.7279   -4.1074    0.0000 C   0  0  1  0  0  0  0  0  0  0  0  0
  -11.4424   -4.5198    0.0000 C   0  0  0  0  0  0  0  0  0  0  0  0
  -10.7279   -3.2823    0.0000 C   0  0  0  0  0  0  0  0  0  0  0  0
  -12.1568   -4.1073    0.0000 C   0  0  0  0  0  0  0  0  0  0  0  0
  -12.8714   -4.5198    0.0000 C   0  0  0  0  0  0  0  0  0  0  0  0
  -13.5857   -4.1072    0.0000 C   0  0  0  0  0  0  0  0  0  0  0  0
  -13.5856   -3.2822    0.0000 C   0  0  0  0  0  0  0  0  0  0  0  0
  -14.3002   -4.5197    0.0000 C   0  0  0  0  0  0  0  0  0  0  0  0
   -2.0244   -1.4609    0.0000 C   0  0  2  0  0  0  0  0  0  0  0  0
   -2.8213   -1.6744    0.0000 C   0  0  0  0  0  0  0  0  0  0  0  0
   -2.4504    3.0557    0.0000 O   0  0  0  0  0  0  0  0  0  0  0  0
   -1.6535    2.8422    0.0000 C   0  0  0  0  0  0  0  0  0  0  0  0
   -1.0701    3.4256    0.0000 C   0  0  0  0  0  0  0  0  0  0  0  0
    2.8630    1.6744    0.0000 C   0  0  0  0  0  0  0  0  0  0  0  0
    3.0765    2.4713    0.0000 H   0  0  0  0  0  0  0  0  0  0  0  0
  1 22  1  0  0  0  0
 15  1  2  0  0  0  0
  1 11  1  0  0  0  0
  2  3  1  0  0  0  0
 22  2  1  0  0  0  0
 20  2  2  0  0  0  0
  3  4  2  0  0  0  0
  4 12  1  0  0  0  0
 17  4  1  0  0  0  0
  5  6  1  0  0  0  0
 12  5  2  0  0  0  0
 21  5  1  0  0  0  0
  6  7  2  0  0  0  0
  7 13  1  0  0  0  0
  7 18  1  0  0  0  0
  8 26  2  0  0  0  0
 27  8  1  0  0  0  0
 13  8  1  0  0  0  0
  9 26  1  0  0  0  0
 14  9  2  0  0  0  0
 35  9  1  0  0  0  0
 10 11  2  0  0  0  0
 14 10  1  0  0  0  0
 61 10  1  0  0  0  0
 23 13  1  0  0  0  0
 20 15  1  0  0  0  0
 15 16  1  0  0  0  0
 17 21  1  0  0  0  0
 17 25  1  0  0  0  0
 18 27  2  0  0  0  0
 18 19  1  0  0  0  0
 61 35  1  0  0  0  0
 20 64  1  0  0  0  0
 64 63  2  0  0  0  0
 21 66  2  0  0  0  0
 22 23  1  0  0  0  0
 66 24  1  0  0  0  0
 26 30  1  0  0  0  0
 27 28  1  0  0  0  0
 30 28  1  0  0  0  0
 28 29  2  0  0  0  0
 30 32  1  6  0  0  0
 32 31  2  0  0  0  0
 32 33  1  0  0  0  0
 33 34  1  0  0  0  0
 37 36  1  0  0  0  0
 35 36  1  1  0  0  0
 37 38  1  0  0  0  0
 38 40  1  0  0  0  0
 38 39  2  0  0  0  0
 41 40  1  0  0  0  0
 42 41  1  0  0  0  0
 43 42  2  0  0  0  0
 44 43  1  0  0  0  0
 45 43  1  0  0  0  0
 46 44  1  0  0  0  0
 47 46  1  0  0  0  0
 48 47  1  0  0  0  0
 49 48  1  0  0  0  0
 48 50  1  1  0  0  0
 51 49  1  0  0  0  0
 52 51  1  0  0  0  0
 53 52  1  0  0  0  0
 54 53  1  0  0  0  0
 53 55  1  1  0  0  0
 56 54  1  0  0  0  0
 57 56  1  0  0  0  0
 58 57  1  0  0  0  0
 59 58  1  0  0  0  0
 60 58  1  0  0  0  0
 61 62  1  6  0  0  0
 64 65  1  0  0  0  0
 66 67  1  4  0  0  0
M  END

>  <ACTIVITY>
5.00
$$$$
27511

  Mrv0541 05041708522D          

 64 71  0  0  0  0            999 V2000
   -1.0625    0.9500    0.0000 C   0  0  0  0  0  0  0  0  0  0  0  0
   -1.7770    0.5375    0.0000 C   0  0  0  0  0  0  0  0  0  0  0  0
   -1.0625   -0.7000    0.0000 C   0  0  0  0  0  0  0  0  0  0  0  0
    0.3664   -0.7000    0.0000 C   0  0  0  0  0  0  0  0  0  0  0  0
    1.0809   -0.2875    0.0000 C   0  0  0  0  0  0  0  0  0  0  0  0
    1.0809    2.1875    0.0000 C   0  0  0  0  0  0  0  0  0  0  0  0
    0.3664    1.7750    0.0000 C   0  0  0  0  0  0  0  0  0  0  0  0
    2.5800    0.6951    0.0000 C   0  0  0  0  0  0  0  0  0  0  0  0
    3.0649    1.3625    0.0000 C   0  0  0  0  0  0  0  0  0  0  0  0
   -0.3480    0.5375    0.0000 C   0  0  1  0  0  0  0  0  0  0  0  0
   -0.3480    1.3625    0.0000 C   0  0  0  0  0  0  0  0  0  0  0  0
    1.7954    1.7750    0.0000 C   0  0  1  0  0  0  0  0  0  0  0  0
    1.7954    2.6000    0.0000 C   0  0  0  0  0  0  0  0  0  0  0  0
    1.0809    0.5375    0.0000 C   0  0  1  0  0  0  0  0  0  0  0  0
    1.0809    1.3625    0.0000 H   0  0  0  0  0  0  0  0  0  0  0  0
   -0.3480   -0.2875    0.0000 C   0  0  1  0  0  0  0  0  0  0  0  0
   -0.3480   -1.1125    0.0000 H   0  0  0  0  0  0  0  0  0  0  0  0
    1.7954    0.9500    0.0000 C   0  0  1  0  0  0  0  0  0  0  0  0
    1.7954    0.1250    0.0000 O   0  0  0  0  0  0  0  0  0  0  0  0
    0.3664    0.9500    0.0000 C   0  0  2  0  0  0  0  0  0  0  0  0
    0.3664    0.1250    0.0000 H   0  0  0  0  0  0  0  0  0  0  0  0
    2.5800    2.8549    0.0000 C   0  0  0  0  0  0  0  0  0  0  0  0
    3.2474    3.3399    0.0000 C   0  0  0  0  0  0  0  0  0  0  0  0
    1.9126    3.3399    0.0000 C   0  0  0  0  0  0  0  0  0  0  0  0
    2.5800    2.0299    0.0000 C   0  0  1  0  0  0  0  0  0  0  0  0
    3.1633    2.6133    0.0000 H   0  0  0  0  0  0  0  0  0  0  0  0
    2.1675    4.1244    0.0000 O   0  0  0  0  0  0  0  0  0  0  0  0
    2.9925    4.1244    0.0000 C   0  0  0  0  0  0  0  0  0  0  0  0
    3.5758    4.7078    0.0000 O   0  0  0  0  0  0  0  0  0  0  0  0
   -1.7770   -0.2875    0.0000 C   0  0  1  0  0  0  0  0  0  0  0  0
   -2.4914   -0.7000    0.0000 O   0  0  0  0  0  0  0  0  0  0  0  0
   -2.4914   -1.5250    0.0000 C   0  0  2  0  0  0  0  0  0  0  0  0
   -3.2059   -1.9375    0.0000 O   0  0  0  0  0  0  0  0  0  0  0  0
   -1.7770   -1.9375    0.0000 C   0  0  1  0  0  0  0  0  0  0  0  0
   -1.0625   -1.5250    0.0000 O   0  0  0  0  0  0  0  0  0  0  0  0
   -2.4914   -3.1750    0.0000 C   0  0  2  0  0  0  0  0  0  0  0  0
   -1.7770   -2.7625    0.0000 C   0  0  1  0  0  0  0  0  0  0  0  0
   -1.0625   -3.1750    0.0000 O   0  0  0  0  0  0  0  0  0  0  0  0
   -1.0625   -4.0000    0.0000 C   0  0  0  0  0  0  0  0  0  0  0  0
   -3.2059   -2.7625    0.0000 C   0  0  2  0  0  0  0  0  0  0  0  0
   -3.9204   -3.1750    0.0000 C   0  0  0  0  0  0  0  0  0  0  0  0
   -2.4914   -4.0000    0.0000 O   0  0  0  0  0  0  0  0  0  0  0  0
   -3.2059   -4.4125    0.0000 C   0  0  2  0  0  0  0  0  0  0  0  0
   -3.9204   -4.0000    0.0000 O   0  0  0  0  0  0  0  0  0  0  0  0
   -3.2059   -5.2376    0.0000 C   0  0  2  0  0  0  0  0  0  0  0  0
   -2.4914   -5.6501    0.0000 O   0  0  0  0  0  0  0  0  0  0  0  0
   -4.6348   -5.2376    0.0000 C   0  0  1  0  0  0  0  0  0  0  0  0
   -5.3493   -5.6501    0.0000 O   0  0  0  0  0  0  0  0  0  0  0  0
   -3.9204   -5.6501    0.0000 C   0  0  2  0  0  0  0  0  0  0  0  0
   -3.9204   -6.4751    0.0000 O   0  0  0  0  0  0  0  0  0  0  0  0
   -4.6348   -4.4125    0.0000 C   0  0  1  0  0  0  0  0  0  0  0  0
   -5.3493   -4.0000    0.0000 C   0  0  0  0  0  0  0  0  0  0  0  0
   -6.0638   -4.4125    0.0000 O   0  0  0  0  0  0  0  0  0  0  0  0
   -6.7783   -4.0000    0.0000 C   0  0  2  0  0  0  0  0  0  0  0  0
   -6.7783   -3.1750    0.0000 O   0  0  0  0  0  0  0  0  0  0  0  0
   -8.2072   -4.0000    0.0000 C   0  0  2  0  0  0  0  0  0  0  0  0
   -8.9217   -4.4125    0.0000 O   0  0  0  0  0  0  0  0  0  0  0  0
   -7.4927   -2.7625    0.0000 C   0  0  2  0  0  0  0  0  0  0  0  0
   -7.4927   -1.9375    0.0000 C   0  0  0  0  0  0  0  0  0  0  0  0
   -8.2072   -1.5250    0.0000 O   0  0  0  0  0  0  0  0  0  0  0  0
   -7.4927   -4.4126    0.0000 C   0  0  1  0  0  0  0  0  0  0  0  0
   -7.4927   -5.2376    0.0000 O   0  0  0  0  0  0  0  0  0  0  0  0
   -8.2072   -3.1750    0.0000 C   0  0  1  0  0  0  0  0  0  0  0  0
   -8.9217   -2.7625    0.0000 O   0  0  0  0  0  0  0  0  0  0  0  0
  1  2  1  0  0  0  0
  1 10  1  0  0  0  0
  2 30  1  0  0  0  0
 30  3  1  0  0  0  0
  3 16  1  0  0  0  0
 20 10  1  0  0  0  0
 10 16  1  0  0  0  0
 16  4  1  0  0  0  0
  4  5  1  0  0  0  0
  5 14  1  0  0  0  0
 14 18  1  0  0  0  0
 20 14  1  0  0  0  0
  7 20  1  0  0  0  0
  6  7  1  0  0  0  0
  6 12  1  0  0  0  0
 18  8  1  0  0  0  0
 12 18  1  0  0  0  0
 25 12  1  0  0  0  0
 25  9  1  0  0  0  0
  8  9  1  0  0  0  0
 10 11  1  1  0  0  0
 12 13  1  1  0  0  0
 14 15  1  1  0  0  0
 16 17  1  1  0  0  0
 18 19  1  1  0  0  0
 20 21  1  6  0  0  0
 25 22  1  0  0  0  0
 22 23  2  0  0  0  0
 22 24  1  0  0  0  0
 23 28  1  0  0  0  0
 28 27  1  0  0  0  0
 27 24  1  0  0  0  0
 25 26  1  6  0  0  0
 28 29  2  0  0  0  0
 30 31  1  1  0  0  0
 32 31  1  1  0  0  0
 32 33  1  0  0  0  0
 32 34  1  0  0  0  0
 33 40  1  0  0  0  0
 40 36  1  0  0  0  0
 36 37  1  0  0  0  0
 37 34  1  0  0  0  0
 34 35  1  1  0  0  0
 36 42  1  1  0  0  0
 37 38  1  6  0  0  0
 38 39  1  0  0  0  0
 40 41  1  6  0  0  0
 43 42  1  1  0  0  0
 45 43  1  0  0  0  0
 44 43  1  0  0  0  0
 44 51  1  0  0  0  0
 51 47  1  0  0  0  0
 47 49  1  0  0  0  0
 49 45  1  0  0  0  0
 45 46  1  6  0  0  0
 47 48  1  6  0  0  0
 49 50  1  1  0  0  0
 51 52  1  1  0  0  0
 52 53  1  0  0  0  0
 54 53  1  1  0  0  0
 61 54  1  0  0  0  0
 54 55  1  0  0  0  0
 58 63  1  0  0  0  0
 58 55  1  0  0  0  0
 63 56  1  0  0  0  0
 56 61  1  0  0  0  0
 56 57  1  1  0  0  0
 58 59  1  1  0  0  0
 59 60  1  0  0  0  0
 61 62  1  6  0  0  0
 63 64  1  6  0  0  0
M  END

>  <ACTIVITY>
5.00
$$$$
27620
ChEBI
  Mrv0541 05041708522D          

 38 41  0  0  1  0            999 V2000
    3.5042   -5.2379    0.0000 C   0  0  0  0  0  0  0  0  0  0  0  0
    2.7827   -6.4716    0.0000 C   0  0  1  0  0  0  0  0  0  0  0  0
    3.5042   -6.8828    0.0000 C   0  0  0  0  0  0  0  0  0  0  0  0
    4.2103   -6.4716    0.0000 C   0  0  2  0  0  0  0  0  0  0  0  0
    5.6457   -6.4716    0.0000 C   0  0  0  0  0  0  0  0  0  0  0  0
    5.6457   -5.6414    0.0000 C   0  0  0  0  0  0  0  0  0  0  0  0
    4.9164   -5.2379    0.0000 C   0  0  1  0  0  0  0  0  0  0  0  0
    4.2103   -5.6414    0.0000 C   0  0  1  0  0  0  0  0  0  0  0  0
    4.9164   -4.4310    0.0000 C   0  0  0  0  0  0  0  0  0  0  0  0
    5.6457   -4.0120    0.0000 C   0  0  0  0  0  0  0  0  0  0  0  0
    6.3440   -4.4310    0.0000 C   0  0  1  0  0  0  0  0  0  0  0  0
    6.3440   -5.2379    0.0000 C   0  0  1  0  0  0  0  0  0  0  0  0
    7.1277   -5.4940    0.0000 C   0  0  0  0  0  0  0  0  0  0  0  0
    7.6010   -4.8422    0.0000 C   0  0  0  0  0  0  0  0  0  0  0  0
    7.1277   -4.1827    0.0000 C   0  0  2  0  0  0  0  0  0  0  0  0
    6.3440   -3.5852    0.0000 C   0  0  0  0  0  0  0  0  0  0  0  0
    4.2097   -4.8267    0.0000 C   0  0  0  0  0  0  0  0  0  0  0  0
    6.3751   -2.8174    0.0000 C   0  0  0  0  0  0  0  0  0  0  0  0
    8.5631   -3.3059    0.0000 C   0  0  0  0  0  0  0  0  0  0  0  0
    9.9907   -3.2749    0.0000 C   0  0  0  0  0  0  0  0  0  0  0  0
    9.9907   -4.1284    0.0000 C   0  0  0  0  0  0  0  0  0  0  0  0
    4.9164   -6.0681    0.0000 H   0  0  0  0  0  0  0  0  0  0  0  0
    7.8492   -3.7715    0.0000 H   0  0  0  0  0  0  0  0  0  0  0  0
    2.0943   -6.8893    0.0000 O   0  0  0  0  0  0  0  0  0  0  0  0
    4.2045   -7.3066    0.0000 H   0  0  0  0  0  0  0  0  0  0  0  0
    2.7827   -5.6414    0.0000 C   0  0  1  0  0  0  0  0  0  0  0  0
    2.0682   -5.2289    0.0000 O   0  0  0  0  0  0  0  0  0  0  0  0
    4.9164   -6.8828    0.0000 C   0  0  0  0  0  0  0  0  0  0  0  0
    4.9164   -7.7078    0.0000 O   0  0  0  0  0  0  0  0  0  0  0  0
    7.1277   -3.3292    0.0000 C   0  0  1  0  0  0  0  0  0  0  0  0
    7.1277   -2.5042    0.0000 O   0  0  0  0  0  0  0  0  0  0  0  0
    7.8570   -2.9025    0.0000 C   0  0  2  0  0  0  0  0  0  0  0  0
    7.8570   -2.0775    0.0000 O   0  0  0  0  0  0  0  0  0  0  0  0
    9.2691   -2.8792    0.0000 C   0  0  2  0  0  0  0  0  0  0  0  0
    9.2691   -2.0542    0.0000 C   0  0  0  0  0  0  0  0  0  0  0  0
   10.6968   -2.8481    0.0000 C   0  0  0  0  0  0  0  0  0  0  0  0
   11.4113   -3.2606    0.0000 O   0  0  0  0  0  0  0  0  0  0  0  0
    6.3518   -6.0629    0.0000 O   0  0  0  0  0  0  0  0  0  0  0  0
 12 11  1  0  0  0  0
 11 15  1  0  0  0  0
 11 10  1  0  0  0  0
 11 16  1  1  0  0  0
  6 12  1  0  0  0  0
 12 13  1  0  0  0  0
 12 38  1  6  0  0  0
  7  9  1  0  0  0  0
  7  8  1  0  0  0  0
  6  7  1  0  0  0  0
  7 22  1  6  0  0  0
  6  5  2  0  0  0  0
  8  4  1  0  0  0  0
  8 17  1  1  0  0  0
  8  1  1  0  0  0  0
 15 14  1  0  0  0  0
 15 30  1  0  0  0  0
 15 23  1  6  0  0  0
  9 10  1  0  0  0  0
 14 13  1  0  0  0  0
 28  5  1  0  0  0  0
  4  3  1  0  0  0  0
  4 28  1  0  0  0  0
 30 32  1  0  0  0  0
 30 18  1  6  0  0  0
 26  1  1  0  0  0  0
 32 19  1  0  0  0  0
 34 19  1  0  0  0  0
  2  3  1  0  0  0  0
 20 34  1  0  0  0  0
  2 26  1  0  0  0  0
 21 20  1  0  0  0  0
 36 20  1  0  0  0  0
  2 24  1  1  0  0  0
  4 25  1  1  0  0  0
 26 27  1  1  0  0  0
 28 29  2  0  0  0  0
 30 31  1  1  0  0  0
 32 33  1  6  0  0  0
 34 35  1  1  0  0  0
 36 37  1  0  0  0  0
M  END

>  <ACTIVITY>
5.00
$$$$
28688

  Mrv0541 05041708522D          

 35 38  0  0  0  0            999 V2000
   -2.7187    0.5750    0.0000 C   0  0  0  0  0  0  0  0  0  0  0  0
   -2.7187   -1.0750    0.0000 C   0  0  0  0  0  0  0  0  0  0  0  0
   -0.5754   -0.6625    0.0000 C   0  0  0  0  0  0  0  0  0  0  0  0
   -0.5754    0.1625    0.0000 C   0  0  0  0  0  0  0  0  0  0  0  0
   -1.2898    0.5750    0.0000 C   0  0  0  0  0  0  0  0  0  0  0  0
   -0.5754    1.8125    0.0000 C   0  0  0  0  0  0  0  0  0  0  0  0
   -1.2898    1.4000    0.0000 C   0  0  0  0  0  0  0  0  0  0  0  0
    0.1391    0.5750    0.0000 C   0  0  0  0  0  0  0  0  0  0  0  0
    0.9237    0.3201    0.0000 C   0  0  0  0  0  0  0  0  0  0  0  0
    1.4086    0.9875    0.0000 C   0  0  0  0  0  0  0  0  0  0  0  0
   -3.4332    0.1625    0.0000 C   0  0  2  0  0  0  0  0  0  0  0  0
   -4.1477    0.5750    0.0000 O   0  0  0  0  0  0  0  0  0  0  0  0
   -3.4332   -0.6625    0.0000 C   0  0  2  0  0  0  0  0  0  0  0  0
   -4.1477   -1.0750    0.0000 O   0  0  0  0  0  0  0  0  0  0  0  0
   -2.0043    0.1625    0.0000 C   0  0  1  0  0  0  0  0  0  0  0  0
   -2.0043    0.9875    0.0000 C   0  0  0  0  0  0  0  0  0  0  0  0
   -2.0043   -0.6625    0.0000 C   0  0  2  0  0  0  0  0  0  0  0  0
   -2.0043   -1.4875    0.0000 H   0  0  0  0  0  0  0  0  0  0  0  0
   -1.2898   -1.0750    0.0000 C   0  0  0  0  0  0  0  0  0  0  0  0
   -1.2898   -1.9000    0.0000 O   0  0  0  0  0  0  0  0  0  0  0  0
    0.1391    1.4000    0.0000 C   0  0  2  0  0  0  0  0  0  0  0  0
    0.1391    2.2250    0.0000 C   0  0  0  0  0  0  0  0  0  0  0  0
    0.9237    1.6549    0.0000 C   0  0  1  0  0  0  0  0  0  0  0  0
    1.7206    1.8685    0.0000 H   0  0  0  0  0  0  0  0  0  0  0  0
    2.3527    2.4799    0.0000 C   0  0  0  0  0  0  0  0  0  0  0  0
    3.0671    2.8924    0.0000 C   0  0  0  0  0  0  0  0  0  0  0  0
    3.7816    1.6549    0.0000 C   0  0  0  0  0  0  0  0  0  0  0  0
    4.4961    2.8924    0.0000 C   0  0  0  0  0  0  0  0  0  0  0  0
    3.7816    2.4799    0.0000 C   0  0  0  0  0  0  0  0  0  0  0  0
    4.4961    2.0674    0.0000 O   0  0  0  0  0  0  0  0  0  0  0  0
    1.6382    2.8924    0.0000 C   0  0  1  0  0  0  0  0  0  0  0  0
    1.6382    3.7174    0.0000 O   0  0  0  0  0  0  0  0  0  0  0  0
    0.9237    2.4799    0.0000 C   0  0  2  0  0  0  0  0  0  0  0  0
    0.9237    3.3049    0.0000 O   0  0  0  0  0  0  0  0  0  0  0  0
    0.2092    2.8924    0.0000 C   0  0  0  0  0  0  0  0  0  0  0  0
  1 11  1  0  0  0  0
  1 15  1  0  0  0  0
 11 13  1  0  0  0  0
 13  2  1  0  0  0  0
  2 17  1  0  0  0  0
  5 15  1  0  0  0  0
 15 17  1  0  0  0  0
 17 19  1  0  0  0  0
 19  3  1  0  0  0  0
  3  4  1  0  0  0  0
  4  8  1  0  0  0  0
  5  4  2  0  0  0  0
  7  5  1  0  0  0  0
  6  7  1  0  0  0  0
  6 21  1  0  0  0  0
  8  9  2  0  0  0  0
 21  8  1  0  0  0  0
 23 21  1  0  0  0  0
 23 10  1  0  0  0  0
  9 10  1  0  0  0  0
 11 12  1  1  0  0  0
 13 14  1  1  0  0  0
 15 16  1  1  0  0  0
 17 18  1  1  0  0  0
 19 20  2  0  0  0  0
 21 22  1  1  0  0  0
 23 33  1  0  0  0  0
 23 24  1  6  0  0  0
 33 35  1  6  0  0  0
 33 31  1  0  0  0  0
 31 25  1  0  0  0  0
 25 26  1  0  0  0  0
 26 29  1  0  0  0  0
 29 27  1  0  0  0  0
 29 28  1  0  0  0  0
 29 30  1  0  0  0  0
 31 32  1  6  0  0  0
 33 34  1  1  0  0  0
M  END

>  <ACTIVITY>
5.00
$$$$
29619

  Mrv0541 05041708522D          

 69 72  0  0  1  0            999 V2000
    3.4697   -3.3808    0.0000 C   0  0  0  0  0  0  0  0  0  0  0  0
    4.1859   -3.7902    0.0000 C   0  0  0  0  0  0  0  0  0  0  0  0
    4.8968   -3.3740    0.0000 C   0  0  0  0  0  0  0  0  0  0  0  0
    5.6119   -3.7829    0.0000 C   0  0  0  0  0  0  0  0  0  0  0  0
    6.3228   -3.3668    0.0000 C   0  0  0  0  0  0  0  0  0  0  0  0
    7.0379   -3.7757    0.0000 C   0  0  0  0  0  0  0  0  0  0  0  0
    7.7488   -3.3596    0.0000 C   0  0  0  0  0  0  0  0  0  0  0  0
    8.4639   -3.7684    0.0000 C   0  0  0  0  0  0  0  0  0  0  0  0
    9.1748   -3.3523    0.0000 C   0  0  0  0  0  0  0  0  0  0  0  0
    9.8899   -3.7611    0.0000 C   0  0  0  0  0  0  0  0  0  0  0  0
   10.6008   -3.3450    0.0000 C   0  0  0  0  0  0  0  0  0  0  0  0
    4.8926   -2.5490    0.0000 O   0  0  0  0  0  0  0  0  0  0  0  0
    5.6050   -2.1329    0.0000 C   0  0  0  0  0  0  0  0  0  0  0  0
    5.6008   -1.3080    0.0000 C   0  0  0  0  0  0  0  0  0  0  0  0
    6.3132   -0.8918    0.0000 C   0  0  0  0  0  0  0  0  0  0  0  0
    6.3090   -0.0669    0.0000 C   0  0  0  0  0  0  0  0  0  0  0  0
    6.3215   -2.5418    0.0000 O   0  0  0  0  0  0  0  0  0  0  0  0
    7.0297   -1.3007    0.0000 C   0  0  0  0  0  0  0  0  0  0  0  0
    5.5924    0.3420    0.0000 C   0  0  0  0  0  0  0  0  0  0  0  0
    5.5882    1.1670    0.0000 O   0  0  0  0  0  0  0  0  0  0  0  0
    4.8800   -0.0741    0.0000 O   0  0  0  0  0  0  0  0  0  0  0  0
   11.3177   -3.7533    0.0000 C   0  0  0  0  0  0  0  0  0  0  0  0
   12.0297   -3.3366    0.0000 C   0  0  0  0  0  0  0  0  0  0  0  0
   11.3226   -4.5782    0.0000 C   0  0  0  0  0  0  0  0  0  0  0  0
    3.4642   -2.5519    0.0000 O   0  0  0  0  0  0  0  0  0  0  0  0
    2.7575   -3.7972    0.0000 O   0  0  0  0  0  0  0  0  0  0  0  0
    4.8414   -7.5046    0.0000 C   0  0  2  0  0  0  0  0  0  0  0  0
    5.6310   -7.2426    0.0000 N   0  0  0  0  0  0  0  0  0  0  0  0
    4.1966   -7.0288    0.0000 O   0  0  0  0  0  0  0  0  0  0  0  0
    4.5966   -8.3150    0.0000 C   0  0  1  0  0  0  0  0  0  0  0  0
    6.2517   -7.7943    0.0000 C   0  0  0  0  0  0  0  0  0  0  0  0
    5.8034   -6.4357    0.0000 C   0  0  0  0  0  0  0  0  0  0  0  0
    3.5207   -7.5219    0.0000 C   0  0  1  0  0  0  0  0  0  0  0  0
    3.7690   -8.3150    0.0000 C   0  0  1  0  0  0  0  0  0  0  0  0
    5.0828   -8.9805    0.0000 O   0  0  0  0  0  0  0  0  0  0  0  0
    7.0448   -7.5357    0.0000 N   0  0  0  0  0  0  0  0  0  0  0  0
    6.0897   -8.6046    0.0000 O   0  0  0  0  0  0  0  0  0  0  0  0
    6.5862   -6.1701    0.0000 C   0  0  0  0  0  0  0  0  0  0  0  0
    2.7345   -7.2667    0.0000 C   0  0  0  0  0  0  0  0  0  0  0  0
    3.2793   -8.9770    0.0000 O   0  0  0  0  0  0  0  0  0  0  0  0
    7.2103   -6.7219    0.0000 C   0  0  0  0  0  0  0  0  0  0  0  0
    8.0000   -6.4667    0.0000 O   0  0  0  0  0  0  0  0  0  0  0  0
    0.2515   -8.8417    0.0000 C   0  0  1  0  0  0  0  0  0  0  0  0
    1.0728   -8.8504    0.0000 C   0  0  2  0  0  0  0  0  0  0  0  0
    1.3349   -8.0719    0.0000 C   0  0  1  0  0  0  0  0  0  0  0  0
    0.6755   -7.5823    0.0000 O   0  0  0  0  0  0  0  0  0  0  0  0
    0.0060   -8.0579    0.0000 C   0  0  2  0  0  0  0  0  0  0  0  0
    1.5506   -9.5230    0.0000 O   0  0  0  0  0  0  0  0  0  0  0  0
   -0.2405   -9.5040    0.0000 O   0  0  0  0  0  0  0  0  0  0  0  0
   -0.7759   -7.7947    0.0000 C   0  0  0  0  0  0  0  0  0  0  0  0
    2.1222   -7.8252    0.0000 O   0  0  0  0  0  0  0  0  0  0  0  0
    1.5453  -10.3477    0.0000 S   0  0  0  0  0  0  0  0  0  0  0  0
    0.7203  -10.3435    0.0000 O   0  0  0  0  0  0  0  0  0  0  0  0
    2.3703  -10.3477    0.0000 O   0  0  0  0  0  0  0  0  0  0  0  0
    1.5411  -11.1727    0.0000 O   0  0  0  0  0  0  0  0  0  0  0  0
    1.7577   -4.7743    0.0000 C   0  0  0  0  0  0  0  0  0  0  0  0
    2.5661   -4.5996    0.0000 C   0  0  0  0  0  0  0  0  0  0  0  0
    3.2129   -5.1240    0.0000 C   0  0  0  0  0  0  0  0  0  0  0  0
    1.3897   -5.5213    0.0000 N   0  0  0  0  0  0  0  0  0  0  0  0
    3.2093   -5.9535    0.0000 N   0  0  0  0  0  0  0  0  0  0  0  0
    1.7448   -6.2740    0.0000 C   0  0  0  0  0  0  0  0  0  0  0  0
    2.5547   -6.4633    0.0000 C   0  0  0  0  0  0  0  0  0  0  0  0
    3.9497   -6.3174    0.0000 C   0  0  0  0  0  0  0  0  0  0  0  0
    1.2262   -6.9156    0.0000 O   0  0  0  0  0  0  0  0  0  0  0  0
    0.5647   -5.5144    0.0000 C   0  0  0  0  0  0  0  0  0  0  0  0
    1.2500   -4.1240    0.0000 C   0  0  0  0  0  0  0  0  0  0  0  0
    1.5593   -3.3592    0.0000 O   0  0  0  0  0  0  0  0  0  0  0  0
    0.4330   -4.2386    0.0000 O   0  0  0  0  0  0  0  0  0  0  0  0
   -1.3947   -8.3402    0.0000 N   0  0  0  0  0  0  0  0  0  0  0  0
 27 29  1  0  0  0  0
 27 30  1  0  0  0  0
 28 31  1  0  0  0  0
 28 32  1  0  0  0  0
 29 33  1  0  0  0  0
 30 34  1  0  0  0  0
 30 35  1  6  0  0  0
 31 36  1  0  0  0  0
 31 37  2  0  0  0  0
 32 38  2  0  0  0  0
 33 39  1  1  0  0  0
 34 40  1  6  0  0  0
 36 41  1  0  0  0  0
 41 42  2  0  0  0  0
 33 34  1  0  0  0  0
 38 41  1  0  0  0  0
  6  7  1  0  0  0  0
 15 16  1  0  0  0  0
  7  8  1  0  0  0  0
  8  9  1  0  0  0  0
  9 10  1  0  0  0  0
 10 11  1  0  0  0  0
 13 17  2  0  0  0  0
  1 25  2  0  0  0  0
  1 26  1  0  0  0  0
 15 18  1  0  0  0  0
 16 19  1  0  0  0  0
 19 20  2  0  0  0  0
 19 21  1  0  0  0  0
 11 22  1  0  0  0  0
 22 23  1  0  0  0  0
 22 24  1  0  0  0  0
  1  2  1  0  0  0  0
  2  3  1  0  0  0  0
  3  4  1  0  0  0  0
  4  5  1  0  0  0  0
  3 12  1  0  0  0  0
 12 13  1  0  0  0  0
 43 44  1  0  0  0  0
 52 53  2  0  0  0  0
 44 45  1  0  0  0  0
 52 54  2  0  0  0  0
 43 49  1  6  0  0  0
 52 55  1  0  0  0  0
 47 50  1  1  0  0  0
 45 46  1  0  0  0  0
 46 47  1  0  0  0  0
 47 43  1  0  0  0  0
 45 51  1  1  0  0  0
 44 48  1  6  0  0  0
 48 52  1  0  0  0  0
 56 57  1  0  0  0  0
 39 51  1  0  0  0  0
 61 64  2  0  0  0  0
 57 58  1  0  0  0  0
 56 59  1  0  0  0  0
 59 65  1  0  0  0  0
 58 60  1  0  0  0  0
 59 61  1  0  0  0  0
 60 63  1  0  0  0  0
 62 39  1  0  0  0  0
 60 62  1  0  0  0  0
 61 62  1  0  0  0  0
 57 26  1  0  0  0  0
  5  6  1  0  0  0  0
 56 66  1  0  0  0  0
 13 14  1  0  0  0  0
 66 67  1  0  0  0  0
 14 15  1  0  0  0  0
 66 68  2  0  0  0  0
 27 28  1  1  0  0  0
 50 69  1  0  0  0  0
M  END

>  <ACTIVITY>
5.00
$$$$
73678

  Mrv0541 05041708522D          

 32 34  0  0  0  0            999 V2000
    0.7145   -0.4125    0.0000 C   0  0  2  0  0  0  0  0  0  0  0  0
    0.0000    0.8250    0.0000 C   0  0  1  0  0  0  0  0  0  0  0  0
    0.0000   -0.8250    0.0000 C   0  0  1  0  0  0  0  0  0  0  0  0
   -0.7145   -0.4125    0.0000 C   0  0  2  0  0  0  0  0  0  0  0  0
   -0.7145    0.4125    0.0000 C   0  0  2  0  0  0  0  0  0  0  0  0
   -0.7144   -2.0625    0.0000 C   0  0  2  0  0  0  0  0  0  0  0  0
   -0.7144   -2.8875    0.0000 C   0  0  1  0  0  0  0  0  0  0  0  0
   -1.4289   -3.3000    0.0000 C   0  0  2  0  0  0  0  0  0  0  0  0
   -2.1434   -2.8875    0.0000 C   0  0  1  0  0  0  0  0  0  0  0  0
   -2.1434   -2.0625    0.0000 C   0  0  2  0  0  0  0  0  0  0  0  0
   -1.4289   -1.6500    0.0000 O   0  0  0  0  0  0  0  0  0  0  0  0
   -2.8578   -3.3000    0.0000 O   0  0  0  0  0  0  0  0  0  0  0  0
   -2.8578   -1.6500    0.0000 C   0  0  0  0  0  0  0  0  0  0  0  0
   -1.4289   -4.1250    0.0000 N   0  3  0  0  0  0  0  0  0  0  0  0
   -3.5723   -2.0625    0.0000 O   0  0  0  0  0  0  0  0  0  0  0  0
    0.0001    1.6500    0.0000 N   0  3  0  0  0  0  0  0  0  0  0  0
    1.4290   -0.8250    0.0000 N   0  3  0  0  0  0  0  0  0  0  0  0
   -1.4289   -0.8250    0.0000 O   0  0  0  0  0  0  0  0  0  0  0  0
    0.0001   -1.6500    0.0000 O   0  0  0  0  0  0  0  0  0  0  0  0
   -1.4289    0.8250    0.0000 O   0  0  0  0  0  0  0  0  0  0  0  0
   -1.4289    1.6500    0.0000 C   0  0  1  0  0  0  0  0  0  0  0  0
   -0.7144    2.0625    0.0000 O   0  0  0  0  0  0  0  0  0  0  0  0
   -0.7144    2.8875    0.0000 C   0  0  1  0  0  0  0  0  0  0  0  0
   -1.4289    3.3000    0.0000 C   0  0  2  0  0  0  0  0  0  0  0  0
   -2.1434    2.8875    0.0000 C   0  0  0  0  0  0  0  0  0  0  0  0
   -2.1434    2.0625    0.0000 C   0  0  1  0  0  0  0  0  0  0  0  0
    0.0001    3.3000    0.0000 C   0  0  0  0  0  0  0  0  0  0  0  0
    0.7145    2.8875    0.0000 N   0  3  0  0  0  0  0  0  0  0  0  0
   -2.8579    1.6500    0.0000 N   0  3  0  0  0  0  0  0  0  0  0  0
   -1.4289    4.1250    0.0000 O   0  0  0  0  0  0  0  0  0  0  0  0
    0.7145    0.4125    0.0000 C   0  0  0  0  0  0  0  0  0  0  0  0
    0.0001   -3.3000    0.0000 O   0  0  0  0  0  0  0  0  0  0  0  0
 31  1  1  0  0  0  0
  1 17  1  1  0  0  0
  2 31  1  0  0  0  0
  2 16  1  1  0  0  0
  1  3  1  0  0  0  0
  3 19  1  6  0  0  0
  3  4  1  0  0  0  0
  4 18  1  1  0  0  0
  4  5  1  0  0  0  0
  5  2  1  0  0  0  0
  5 20  1  6  0  0  0
  6 19  1  6  0  0  0
  6  7  1  0  0  0  0
 11  6  1  0  0  0  0
  7  8  1  0  0  0  0
  7 32  1  6  0  0  0
  8  9  1  0  0  0  0
  8 14  1  1  0  0  0
  9 10  1  0  0  0  0
  9 12  1  6  0  0  0
 10 11  1  0  0  0  0
 10 13  1  1  0  0  0
 13 15  1  0  0  0  0
 21 20  1  6  0  0  0
 21 22  1  0  0  0  0
 26 21  1  0  0  0  0
 22 23  1  0  0  0  0
 23 24  1  0  0  0  0
 23 27  1  1  0  0  0
 24 25  1  0  0  0  0
 24 30  1  6  0  0  0
 25 26  1  0  0  0  0
 26 29  1  6  0  0  0
 27 28  1  0  0  0  0
M  CHG  5  14   1  16   1  17   1  28   1  29   1
M  END

>  <ACTIVITY>
5.00
$$$$
28864
ChEBI
  Mrv0541 05041708522D          

 32 34  0  0  1  0            999 V2000
   11.2859  -12.2233    0.0000 C   0  0  2  0  0  0  0  0  0  0  0  0
   10.5714  -11.8110    0.0000 C   0  0  2  0  0  0  0  0  0  0  0  0
    9.8569  -12.2241    0.0000 C   0  0  0  0  0  0  0  0  0  0  0  0
    9.8706  -13.0258    0.0000 C   0  0  2  0  0  0  0  0  0  0  0  0
   10.5851  -13.4380    0.0000 C   0  0  2  0  0  0  0  0  0  0  0  0
   11.2860  -13.0486    0.0000 O   0  0  0  0  0  0  0  0  0  0  0  0
   10.5851  -14.2635    0.0000 O   0  0  0  0  0  0  0  0  0  0  0  0
   11.2996  -14.6757    0.0000 C   0  0  1  0  0  0  0  0  0  0  0  0
   11.2998  -15.5011    0.0000 C   0  0  1  0  0  0  0  0  0  0  0  0
   12.0143  -15.9133    0.0000 C   0  0  2  0  0  0  0  0  0  0  0  0
   12.7151  -15.5240    0.0000 C   0  0  1  0  0  0  0  0  0  0  0  0
   12.7151  -14.6986    0.0000 C   0  0  0  0  0  0  0  0  0  0  0  0
   12.0006  -14.2864    0.0000 C   0  0  2  0  0  0  0  0  0  0  0  0
   12.0005  -11.8101    0.0000 C   0  0  0  0  0  0  0  0  0  0  0  0
    9.1560  -13.4390    0.0000 N   0  0  0  0  0  0  0  0  0  0  0  0
   12.0005  -13.4609    0.0000 N   0  0  0  0  0  0  0  0  0  0  0  0
   13.4297  -15.9363    0.0000 N   0  0  0  0  0  0  0  0  0  0  0  0
   10.5851  -15.9142    0.0000 O   0  0  0  0  0  0  0  0  0  0  0  0
   12.7151  -12.2223    0.0000 N   0  0  0  0  0  0  0  0  0  0  0  0
   11.2964  -17.1453    0.0000 C   0  0  1  0  0  0  0  0  0  0  0  0
   10.6089  -16.7328    0.0000 O   0  0  0  0  0  0  0  0  0  0  0  0
    9.8665  -17.1453    0.0000 C   0  0  1  0  0  0  0  0  0  0  0  0
    9.8665  -17.9703    0.0000 C   0  0  2  0  0  0  0  0  0  0  0  0
   10.5815  -18.3827    0.0000 C   0  0  1  0  0  0  0  0  0  0  0  0
   11.2964  -17.9703    0.0000 C   0  0  1  0  0  0  0  0  0  0  0  0
   10.5714  -10.9856    0.0000 O   0  0  0  0  0  0  0  0  0  0  0  0
    9.1790  -16.7053    0.0000 C   0  0  0  0  0  0  0  0  0  0  0  0
    8.4366  -17.1178    0.0000 O   0  0  0  0  0  0  0  0  0  0  0  0
    9.1515  -18.3552    0.0000 O   0  0  0  0  0  0  0  0  0  0  0  0
   10.5815  -19.2077    0.0000 N   0  0  0  0  0  0  0  0  0  0  0  0
   12.0114  -18.3827    0.0000 O   0  0  0  0  0  0  0  0  0  0  0  0
   12.0143  -16.7388    0.0000 O   0  0  0  0  0  0  0  0  0  0  0  0
 25 20  1  0  0  0  0
 11 12  1  0  0  0  0
 12 13  1  0  0  0  0
 13  8  1  0  0  0  0
  6  1  1  0  0  0  0
 10 32  1  6  0  0  0
  1 14  1  1  0  0  0
  5  7  1  6  0  0  0
  4 15  1  6  0  0  0
 13 16  1  1  0  0  0
  8  7  1  6  0  0  0
  2 26  1  6  0  0  0
 11 17  1  1  0  0  0
  1  2  1  0  0  0  0
  9 18  1  1  0  0  0
  2  3  1  0  0  0  0
 14 19  1  0  0  0  0
  3  4  1  0  0  0  0
 22 27  1  1  0  0  0
 27 28  1  0  0  0  0
 23 29  1  6  0  0  0
  4  5  1  0  0  0  0
 24 30  1  1  0  0  0
  5  6  1  0  0  0  0
 25 31  1  6  0  0  0
  8  9  1  0  0  0  0
  9 10  1  0  0  0  0
 10 11  1  0  0  0  0
 20 21  1  0  0  0  0
 21 22  1  0  0  0  0
 22 23  1  0  0  0  0
 23 24  1  0  0  0  0
 24 25  1  0  0  0  0
 20 32  1  6  0  0  0
M  END

>  <ACTIVITY>
5.00
$$$$
73686

  Mrv0541 05041708522D          

 35 37  0  0  1  0            999 V2000
    8.4626   -5.2358    0.0000 C   0  0  2  0  0  0  0  0  0  0  0  0
    7.7481   -3.9982    0.0000 C   0  0  1  0  0  0  0  0  0  0  0  0
    7.7481   -5.6483    0.0000 C   0  0  1  0  0  0  0  0  0  0  0  0
    7.0336   -5.2358    0.0000 C   0  0  2  0  0  0  0  0  0  0  0  0
    7.0336   -4.4108    0.0000 C   0  0  2  0  0  0  0  0  0  0  0  0
    7.0337   -6.8857    0.0000 C   0  0  2  0  0  0  0  0  0  0  0  0
    7.0337   -7.7107    0.0000 C   0  0  1  0  0  0  0  0  0  0  0  0
    6.3192   -8.1232    0.0000 C   0  0  2  0  0  0  0  0  0  0  0  0
    5.6048   -7.7107    0.0000 C   0  0  1  0  0  0  0  0  0  0  0  0
    5.6048   -6.8857    0.0000 C   0  0  2  0  0  0  0  0  0  0  0  0
    6.3192   -6.4732    0.0000 O   0  0  0  0  0  0  0  0  0  0  0  0
    4.8904   -8.1232    0.0000 O   0  0  0  0  0  0  0  0  0  0  0  0
    4.8904   -6.4732    0.0000 C   0  0  0  0  0  0  0  0  0  0  0  0
    6.3192   -8.9482    0.0000 N   0  0  0  0  0  0  0  0  0  0  0  0
    4.1759   -6.8857    0.0000 O   0  0  0  0  0  0  0  0  0  0  0  0
    7.7482   -3.1733    0.0000 N   0  0  0  0  0  0  0  0  0  0  0  0
    9.1771   -5.6483    0.0000 N   0  0  0  0  0  0  0  0  0  0  0  0
    6.3192   -5.6483    0.0000 O   0  0  0  0  0  0  0  0  0  0  0  0
    7.7482   -6.4732    0.0000 O   0  0  0  0  0  0  0  0  0  0  0  0
    6.3192   -3.9982    0.0000 O   0  0  0  0  0  0  0  0  0  0  0  0
    6.3192   -3.1733    0.0000 C   0  0  1  0  0  0  0  0  0  0  0  0
    7.0337   -2.7608    0.0000 O   0  0  0  0  0  0  0  0  0  0  0  0
    7.0337   -1.9358    0.0000 C   0  0  1  0  0  0  0  0  0  0  0  0
    6.3192   -1.5233    0.0000 C   0  0  2  0  0  0  0  0  0  0  0  0
    5.6048   -1.9358    0.0000 C   0  0  0  0  0  0  0  0  0  0  0  0
    5.6048   -2.7608    0.0000 C   0  0  1  0  0  0  0  0  0  0  0  0
    7.7482   -1.5233    0.0000 C   0  0  0  0  0  0  0  0  0  0  0  0
    8.4626   -1.9358    0.0000 N   0  0  0  0  0  0  0  0  0  0  0  0
    4.8904   -3.1733    0.0000 N   0  0  0  0  0  0  0  0  0  0  0  0
    6.3192   -0.6983    0.0000 O   0  0  0  0  0  0  0  0  0  0  0  0
    8.4626   -4.4108    0.0000 C   0  0  0  0  0  0  0  0  0  0  0  0
    7.7482   -8.1232    0.0000 O   0  0  0  0  0  0  0  0  0  0  0  0
    3.4614   -6.4732    0.0000 C   0  0  0  0  0  0  0  0  0  0  0  0
    2.7470   -6.8857    0.0000 N   0  0  0  0  0  0  0  0  0  0  0  0
    3.4615   -5.6483    0.0000 O   0  0  0  0  0  0  0  0  0  0  0  0
 31  1  1  0  0  0  0
  1 17  1  1  0  0  0
  2 31  1  0  0  0  0
  2 16  1  1  0  0  0
  1  3  1  0  0  0  0
  3 19  1  6  0  0  0
  3  4  1  0  0  0  0
  4 18  1  1  0  0  0
  4  5  1  0  0  0  0
  5  2  1  0  0  0  0
  5 20  1  6  0  0  0
  6 19  1  6  0  0  0
  6  7  1  0  0  0  0
 11  6  1  0  0  0  0
  7  8  1  0  0  0  0
  7 32  1  6  0  0  0
  8  9  1  0  0  0  0
  8 14  1  1  0  0  0
  9 10  1  0  0  0  0
  9 12  1  6  0  0  0
 10 11  1  0  0  0  0
 10 13  1  1  0  0  0
 13 15  1  0  0  0  0
 21 20  1  6  0  0  0
 21 22  1  0  0  0  0
 26 21  1  0  0  0  0
 22 23  1  0  0  0  0
 23 24  1  0  0  0  0
 23 27  1  1  0  0  0
 24 25  1  0  0  0  0
 24 30  1  6  0  0  0
 25 26  1  0  0  0  0
 26 29  1  6  0  0  0
 27 28  1  0  0  0  0
 15 33  1  0  0  0  0
 33 34  1  0  0  0  0
 33 35  2  0  0  0  0
M  END

>  <ACTIVITY>
5.00
$$$$
73679

  Mrv0541 05041708522D          

 35 37  0  0  0  0            999 V2000
    0.7145   -0.4125    0.0000 C   0  0  2  0  0  0  0  0  0  0  0  0
    0.0000    0.8250    0.0000 C   0  0  1  0  0  0  0  0  0  0  0  0
    0.0000   -0.8250    0.0000 C   0  0  1  0  0  0  0  0  0  0  0  0
   -0.7145   -0.4125    0.0000 C   0  0  2  0  0  0  0  0  0  0  0  0
   -0.7145    0.4125    0.0000 C   0  0  2  0  0  0  0  0  0  0  0  0
   -0.7144   -2.0625    0.0000 C   0  0  2  0  0  0  0  0  0  0  0  0
   -0.7144   -2.8875    0.0000 C   0  0  1  0  0  0  0  0  0  0  0  0
   -1.4289   -3.3000    0.0000 C   0  0  2  0  0  0  0  0  0  0  0  0
   -2.1434   -2.8875    0.0000 C   0  0  1  0  0  0  0  0  0  0  0  0
   -2.1434   -2.0625    0.0000 C   0  0  2  0  0  0  0  0  0  0  0  0
   -1.4289   -1.6500    0.0000 O   0  0  0  0  0  0  0  0  0  0  0  0
   -2.8578   -3.3000    0.0000 O   0  0  0  0  0  0  0  0  0  0  0  0
   -2.8578   -1.6500    0.0000 C   0  0  0  0  0  0  0  0  0  0  0  0
   -1.4289   -4.1250    0.0000 N   0  3  0  0  0  0  0  0  0  0  0  0
   -3.5723   -2.0625    0.0000 O   0  0  0  0  0  0  0  0  0  0  0  0
    0.0001    1.6500    0.0000 N   0  3  0  0  0  0  0  0  0  0  0  0
    1.4290   -0.8250    0.0000 N   0  3  0  0  0  0  0  0  0  0  0  0
   -1.4289   -0.8250    0.0000 O   0  0  0  0  0  0  0  0  0  0  0  0
    0.0001   -1.6500    0.0000 O   0  0  0  0  0  0  0  0  0  0  0  0
   -1.4289    0.8250    0.0000 O   0  0  0  0  0  0  0  0  0  0  0  0
   -1.4289    1.6500    0.0000 C   0  0  1  0  0  0  0  0  0  0  0  0
   -0.7144    2.0625    0.0000 O   0  0  0  0  0  0  0  0  0  0  0  0
   -0.7144    2.8875    0.0000 C   0  0  1  0  0  0  0  0  0  0  0  0
   -1.4289    3.3000    0.0000 C   0  0  2  0  0  0  0  0  0  0  0  0
   -2.1434    2.8875    0.0000 C   0  0  0  0  0  0  0  0  0  0  0  0
   -2.1434    2.0625    0.0000 C   0  0  1  0  0  0  0  0  0  0  0  0
    0.0001    3.3000    0.0000 C   0  0  0  0  0  0  0  0  0  0  0  0
    0.7145    2.8875    0.0000 N   0  3  0  0  0  0  0  0  0  0  0  0
   -2.8578    1.6500    0.0000 N   0  3  0  0  0  0  0  0  0  0  0  0
   -1.4289    4.1250    0.0000 O   0  0  0  0  0  0  0  0  0  0  0  0
    0.7145    0.4125    0.0000 C   0  0  0  0  0  0  0  0  0  0  0  0
    0.0001   -3.3000    0.0000 O   0  0  0  0  0  0  0  0  0  0  0  0
   -4.2868   -1.6500    0.0000 C   0  0  0  0  0  0  0  0  0  0  0  0
   -5.0012   -2.0625    0.0000 N   0  0  0  0  0  0  0  0  0  0  0  0
   -4.2867   -0.8250    0.0000 O   0  0  0  0  0  0  0  0  0  0  0  0
 31  1  1  0  0  0  0
  1 17  1  1  0  0  0
  2 31  1  0  0  0  0
  2 16  1  1  0  0  0
  1  3  1  0  0  0  0
  3 19  1  6  0  0  0
  3  4  1  0  0  0  0
  4 18  1  1  0  0  0
  4  5  1  0  0  0  0
  5  2  1  0  0  0  0
  5 20  1  6  0  0  0
  6 19  1  6  0  0  0
  6  7  1  0  0  0  0
 11  6  1  0  0  0  0
  7  8  1  0  0  0  0
  7 32  1  6  0  0  0
  8  9  1  0  0  0  0
  8 14  1  1  0  0  0
  9 10  1  0  0  0  0
  9 12  1  6  0  0  0
 10 11  1  0  0  0  0
 10 13  1  1  0  0  0
 13 15  1  0  0  0  0
 21 20  1  6  0  0  0
 21 22  1  0  0  0  0
 26 21  1  0  0  0  0
 22 23  1  0  0  0  0
 23 24  1  0  0  0  0
 23 27  1  1  0  0  0
 24 25  1  0  0  0  0
 24 30  1  6  0  0  0
 25 26  1  0  0  0  0
 26 29  1  6  0  0  0
 27 28  1  0  0  0  0
 15 33  1  0  0  0  0
 33 34  1  0  0  0  0
 33 35  2  0  0  0  0
M  CHG  5  14   1  16   1  17   1  28   1  29   1
M  END

>  <ACTIVITY>
5.00
$$$$
